Program Version,EnergyPlus, Version 26.1.0-6f2e40d102, YMD=2026.04.14 19:03
! This file shows details about the branches, nodes, and other
! elements of the flow connections.
! This file is intended for use in "debugging" potential problems
! that may also be detected by the program, but may be more easily
! identified by "eye".
! This file is also intended to support software which draws a
! schematic diagram of the HVAC system.
! ===============================================================
! #Nodes,<Number of Unique Nodes>
 #Nodes,648
! <Node>,<NodeNumber>,<Node Name>,<Node Fluid Type>,<# Times Node Referenced After Definition>
 Node,1,G SW APARTMENT ZONE EXHAUST NODE,Air,3
 Node,2,G SW APARTMENT DIRECT AIR INLET NODE,Air,3
 Node,3,G SW APARTMENT ERV SUP FAN OUTLET NODE,Air,3
 Node,4,AIRLOOP G SW OAINLET NODE,Air,3
 Node,5,G NW APARTMENT ZONE EXHAUST NODE,Air,3
 Node,6,G NW APARTMENT DIRECT AIR INLET NODE,Air,3
 Node,7,G NW APARTMENT ERV SUP FAN OUTLET NODE,Air,3
 Node,8,AIRLOOP G NW OAINLET NODE,Air,3
 Node,9,OFFICE DIRECT AIR INLET NODE,Air,3
 Node,10,AIRLOOP OFFICE OAINLET NODE,Air,3
 Node,11,G NE APARTMENT ZONE EXHAUST NODE,Air,3
 Node,12,G NE APARTMENT DIRECT AIR INLET NODE,Air,3
 Node,13,G NE APARTMENT ERV SUP FAN OUTLET NODE,Air,3
 Node,14,AIRLOOP G NE OAINLET NODE,Air,3
 Node,15,G N1 APARTMENT ZONE EXHAUST NODE,Air,3
 Node,16,G N1 APARTMENT DIRECT AIR INLET NODE,Air,3
 Node,17,G N1 APARTMENT ERV SUP FAN OUTLET NODE,Air,3
 Node,18,AIRLOOP G N1 OAINLET NODE,Air,3
 Node,19,G N2 APARTMENT ZONE EXHAUST NODE,Air,3
 Node,20,G N2 APARTMENT DIRECT AIR INLET NODE,Air,3
 Node,21,G N2 APARTMENT ERV SUP FAN OUTLET NODE,Air,3
 Node,22,AIRLOOP G N2 OAINLET NODE,Air,3
 Node,23,G S1 APARTMENT ZONE EXHAUST NODE,Air,3
 Node,24,G S1 APARTMENT DIRECT AIR INLET NODE,Air,3
 Node,25,G S1 APARTMENT ERV SUP FAN OUTLET NODE,Air,3
 Node,26,AIRLOOP G S1 OAINLET NODE,Air,3
 Node,27,G S2 APARTMENT ZONE EXHAUST NODE,Air,3
 Node,28,G S2 APARTMENT DIRECT AIR INLET NODE,Air,3
 Node,29,G S2 APARTMENT ERV SUP FAN OUTLET NODE,Air,3
 Node,30,AIRLOOP G S2 OAINLET NODE,Air,3
 Node,31,M SW APARTMENT ZONE EXHAUST NODE,Air,3
 Node,32,M SW APARTMENT DIRECT AIR INLET NODE,Air,3
 Node,33,M SW APARTMENT ERV SUP FAN OUTLET NODE,Air,3
 Node,34,AIRLOOP M SW OAINLET NODE,Air,3
 Node,35,M NW APARTMENT ZONE EXHAUST NODE,Air,3
 Node,36,M NW APARTMENT DIRECT AIR INLET NODE,Air,3
 Node,37,M NW APARTMENT ERV SUP FAN OUTLET NODE,Air,3
 Node,38,AIRLOOP M NW OAINLET NODE,Air,3
 Node,39,M SE APARTMENT ZONE EXHAUST NODE,Air,3
 Node,40,M SE APARTMENT DIRECT AIR INLET NODE,Air,3
 Node,41,M SE APARTMENT ERV SUP FAN OUTLET NODE,Air,3
 Node,42,AIRLOOP M SE OAINLET NODE,Air,3
 Node,43,M NE APARTMENT ZONE EXHAUST NODE,Air,3
 Node,44,M NE APARTMENT DIRECT AIR INLET NODE,Air,3
 Node,45,M NE APARTMENT ERV SUP FAN OUTLET NODE,Air,3
 Node,46,AIRLOOP M NE OAINLET NODE,Air,3
 Node,47,M N1 APARTMENT ZONE EXHAUST NODE,Air,3
 Node,48,M N1 APARTMENT DIRECT AIR INLET NODE,Air,3
 Node,49,M N1 APARTMENT ERV SUP FAN OUTLET NODE,Air,3
 Node,50,AIRLOOP M N1 OAINLET NODE,Air,3
 Node,51,M N2 APARTMENT ZONE EXHAUST NODE,Air,3
 Node,52,M N2 APARTMENT DIRECT AIR INLET NODE,Air,3
 Node,53,M N2 APARTMENT ERV SUP FAN OUTLET NODE,Air,3
 Node,54,AIRLOOP M N2 OAINLET NODE,Air,3
 Node,55,M S1 APARTMENT ZONE EXHAUST NODE,Air,3
 Node,56,M S1 APARTMENT DIRECT AIR INLET NODE,Air,3
 Node,57,M S1 APARTMENT ERV SUP FAN OUTLET NODE,Air,3
 Node,58,AIRLOOP M S1 OAINLET NODE,Air,3
 Node,59,M S2 APARTMENT ZONE EXHAUST NODE,Air,3
 Node,60,M S2 APARTMENT DIRECT AIR INLET NODE,Air,3
 Node,61,M S2 APARTMENT ERV SUP FAN OUTLET NODE,Air,3
 Node,62,AIRLOOP M S2 OAINLET NODE,Air,3
 Node,63,T SW APARTMENT ZONE EXHAUST NODE,Air,3
 Node,64,T SW APARTMENT DIRECT AIR INLET NODE,Air,3
 Node,65,T SW APARTMENT ERV SUP FAN OUTLET NODE,Air,3
 Node,66,AIRLOOP T SW OAINLET NODE,Air,3
 Node,67,T NW APARTMENT ZONE EXHAUST NODE,Air,3
 Node,68,T NW APARTMENT DIRECT AIR INLET NODE,Air,3
 Node,69,T NW APARTMENT ERV SUP FAN OUTLET NODE,Air,3
 Node,70,AIRLOOP T NW OAINLET NODE,Air,3
 Node,71,T SE APARTMENT ZONE EXHAUST NODE,Air,3
 Node,72,T SE APARTMENT DIRECT AIR INLET NODE,Air,3
 Node,73,T SE APARTMENT ERV SUP FAN OUTLET NODE,Air,3
 Node,74,AIRLOOP T SE OAINLET NODE,Air,3
 Node,75,T NE APARTMENT ZONE EXHAUST NODE,Air,3
 Node,76,T NE APARTMENT DIRECT AIR INLET NODE,Air,3
 Node,77,T NE APARTMENT ERV SUP FAN OUTLET NODE,Air,3
 Node,78,AIRLOOP T NE OAINLET NODE,Air,3
 Node,79,T N1 APARTMENT ZONE EXHAUST NODE,Air,3
 Node,80,T N1 APARTMENT DIRECT AIR INLET NODE,Air,3
 Node,81,T N1 APARTMENT ERV SUP FAN OUTLET NODE,Air,3
 Node,82,AIRLOOP T N1 OAINLET NODE,Air,3
 Node,83,T N2 APARTMENT ZONE EXHAUST NODE,Air,3
 Node,84,T N2 APARTMENT DIRECT AIR INLET NODE,Air,3
 Node,85,T N2 APARTMENT ERV SUP FAN OUTLET NODE,Air,3
 Node,86,AIRLOOP T N2 OAINLET NODE,Air,3
 Node,87,T S1 APARTMENT ZONE EXHAUST NODE,Air,3
 Node,88,T S1 APARTMENT DIRECT AIR INLET NODE,Air,3
 Node,89,T S1 APARTMENT ERV SUP FAN OUTLET NODE,Air,3
 Node,90,AIRLOOP T S1 OAINLET NODE,Air,3
 Node,91,T S2 APARTMENT ZONE EXHAUST NODE,Air,3
 Node,92,T S2 APARTMENT DIRECT AIR INLET NODE,Air,3
 Node,93,T S2 APARTMENT ERV SUP FAN OUTLET NODE,Air,3
 Node,94,AIRLOOP T S2 OAINLET NODE,Air,3
 Node,95,PLANT SUPPLY INLET NODE,Water,2
 Node,96,PLANT PUMP OUTLET NODE,Water,1
 Node,97,CENTRAL TOWER INLET NODE,Water,1
 Node,98,CENTRAL TOWER OUTLET NODE,Water,2
 Node,99,CENTRAL BOILER INLET NODE,Water,1
 Node,100,CENTRAL BOILER OUTLET NODE,Water,2
 Node,101,PLANT SUPPLY BYPASS INLET NODE,Water,1
 Node,102,PLANT SUPPLY BYPASS OUTLET NODE,Water,1
 Node,103,PLANT SUPPLY EXIT PIPE INLET NODE,Water,1
 Node,104,PLANT SUPPLY OUTLET NODE,Water,4
 Node,105,PLANT DEMAND INLET NODE,Water,2
 Node,106,PLANT DEMAND ENTRANCE PIPE OUTLET NODE,Water,1
 Node,107,COND DEMAND BYPASS INLET NODE,Water,1
 Node,108,COND DEMAND BYPASS OUTLET NODE,Water,1
 Node,109,PLANT DEMAND EXIT PIPE INLET NODE,Water,1
 Node,110,PLANT DEMAND OUTLET NODE,Water,2
 Node,111,AIRLOOP G SW CCOIL WATER INLET,Water,1
 Node,112,AIRLOOP G SW CCOIL WATER OUTLET,Water,1
 Node,113,AIRLOOP G SW HCOIL WATER INLET,Water,1
 Node,114,AIRLOOP G SW HCOIL WATER OUTLET,Water,1
 Node,115,AIRLOOP G SW SUPPLY EQUIPMENT INLET NODE,Air,3
 Node,116,AIRLOOP G SW MIXED AIR OUTLET,Air,5
 Node,117,AIRLOOP G SW SUPPLY EQUIPMENT OUTLET NODE,Air,3
 Node,118,AIRLOOP G NW CCOIL WATER INLET,Water,1
 Node,119,AIRLOOP G NW CCOIL WATER OUTLET,Water,1
 Node,120,AIRLOOP G NW HCOIL WATER INLET,Water,1
 Node,121,AIRLOOP G NW HCOIL WATER OUTLET,Water,1
 Node,122,AIRLOOP G NW SUPPLY EQUIPMENT INLET NODE,Air,3
 Node,123,AIRLOOP G NW MIXED AIR OUTLET,Air,5
 Node,124,AIRLOOP G NW SUPPLY EQUIPMENT OUTLET NODE,Air,3
 Node,125,AIRLOOP OFFICE CCOIL WATER INLET,Water,1
 Node,126,AIRLOOP OFFICE CCOIL WATER OUTLET,Water,1
 Node,127,AIRLOOP OFFICE HCOIL WATER INLET,Water,1
 Node,128,AIRLOOP OFFICE HCOIL WATER OUTLET,Water,1
 Node,129,AIRLOOP OFFICE SUPPLY EQUIPMENT INLET NODE,Air,3
 Node,130,AIRLOOP OFFICE MIXED AIR OUTLET,Air,5
 Node,131,AIRLOOP OFFICE SUPPLY EQUIPMENT OUTLET NODE,Air,3
 Node,132,AIRLOOP G NE CCOIL WATER INLET,Water,1
 Node,133,AIRLOOP G NE CCOIL WATER OUTLET,Water,1
 Node,134,AIRLOOP G NE HCOIL WATER INLET,Water,1
 Node,135,AIRLOOP G NE HCOIL WATER OUTLET,Water,1
 Node,136,AIRLOOP G NE SUPPLY EQUIPMENT INLET NODE,Air,3
 Node,137,AIRLOOP G NE MIXED AIR OUTLET,Air,5
 Node,138,AIRLOOP G NE SUPPLY EQUIPMENT OUTLET NODE,Air,3
 Node,139,AIRLOOP G N1 CCOIL WATER INLET,Water,1
 Node,140,AIRLOOP G N1 CCOIL WATER OUTLET,Water,1
 Node,141,AIRLOOP G N1 HCOIL WATER INLET,Water,1
 Node,142,AIRLOOP G N1 HCOIL WATER OUTLET,Water,1
 Node,143,AIRLOOP G N1 SUPPLY EQUIPMENT INLET NODE,Air,3
 Node,144,AIRLOOP G N1 MIXED AIR OUTLET,Air,5
 Node,145,AIRLOOP G N1 SUPPLY EQUIPMENT OUTLET NODE,Air,3
 Node,146,AIRLOOP G N2 CCOIL WATER INLET,Water,1
 Node,147,AIRLOOP G N2 CCOIL WATER OUTLET,Water,1
 Node,148,AIRLOOP G N2 HCOIL WATER INLET,Water,1
 Node,149,AIRLOOP G N2 HCOIL WATER OUTLET,Water,1
 Node,150,AIRLOOP G N2 SUPPLY EQUIPMENT INLET NODE,Air,3
 Node,151,AIRLOOP G N2 MIXED AIR OUTLET,Air,5
 Node,152,AIRLOOP G N2 SUPPLY EQUIPMENT OUTLET NODE,Air,3
 Node,153,AIRLOOP G S1 CCOIL WATER INLET,Water,1
 Node,154,AIRLOOP G S1 CCOIL WATER OUTLET,Water,1
 Node,155,AIRLOOP G S1 HCOIL WATER INLET,Water,1
 Node,156,AIRLOOP G S1 HCOIL WATER OUTLET,Water,1
 Node,157,AIRLOOP G S1 SUPPLY EQUIPMENT INLET NODE,Air,3
 Node,158,AIRLOOP G S1 MIXED AIR OUTLET,Air,5
 Node,159,AIRLOOP G S1 SUPPLY EQUIPMENT OUTLET NODE,Air,3
 Node,160,AIRLOOP G S2 CCOIL WATER INLET,Water,1
 Node,161,AIRLOOP G S2 CCOIL WATER OUTLET,Water,1
 Node,162,AIRLOOP G S2 HCOIL WATER INLET,Water,1
 Node,163,AIRLOOP G S2 HCOIL WATER OUTLET,Water,1
 Node,164,AIRLOOP G S2 SUPPLY EQUIPMENT INLET NODE,Air,3
 Node,165,AIRLOOP G S2 MIXED AIR OUTLET,Air,5
 Node,166,AIRLOOP G S2 SUPPLY EQUIPMENT OUTLET NODE,Air,3
 Node,167,AIRLOOP M SW CCOIL WATER INLET,Water,1
 Node,168,AIRLOOP M SW CCOIL WATER OUTLET,Water,1
 Node,169,AIRLOOP M SW HCOIL WATER INLET,Water,1
 Node,170,AIRLOOP M SW HCOIL WATER OUTLET,Water,1
 Node,171,AIRLOOP M SW SUPPLY EQUIPMENT INLET NODE,Air,3
 Node,172,AIRLOOP M SW MIXED AIR OUTLET,Air,5
 Node,173,AIRLOOP M SW SUPPLY EQUIPMENT OUTLET NODE,Air,3
 Node,174,AIRLOOP M NW CCOIL WATER INLET,Water,1
 Node,175,AIRLOOP M NW CCOIL WATER OUTLET,Water,1
 Node,176,AIRLOOP M NW HCOIL WATER INLET,Water,1
 Node,177,AIRLOOP M NW HCOIL WATER OUTLET,Water,1
 Node,178,AIRLOOP M NW SUPPLY EQUIPMENT INLET NODE,Air,3
 Node,179,AIRLOOP M NW MIXED AIR OUTLET,Air,5
 Node,180,AIRLOOP M NW SUPPLY EQUIPMENT OUTLET NODE,Air,3
 Node,181,AIRLOOP M SE CCOIL WATER INLET,Water,1
 Node,182,AIRLOOP M SE CCOIL WATER OUTLET,Water,1
 Node,183,AIRLOOP M SE HCOIL WATER INLET,Water,1
 Node,184,AIRLOOP M SE HCOIL WATER OUTLET,Water,1
 Node,185,AIRLOOP M SE SUPPLY EQUIPMENT INLET NODE,Air,3
 Node,186,AIRLOOP M SE MIXED AIR OUTLET,Air,5
 Node,187,AIRLOOP M SE SUPPLY EQUIPMENT OUTLET NODE,Air,3
 Node,188,AIRLOOP M NE CCOIL WATER INLET,Water,1
 Node,189,AIRLOOP M NE CCOIL WATER OUTLET,Water,1
 Node,190,AIRLOOP M NE HCOIL WATER INLET,Water,1
 Node,191,AIRLOOP M NE HCOIL WATER OUTLET,Water,1
 Node,192,AIRLOOP M NE SUPPLY EQUIPMENT INLET NODE,Air,3
 Node,193,AIRLOOP M NE MIXED AIR OUTLET,Air,5
 Node,194,AIRLOOP M NE SUPPLY EQUIPMENT OUTLET NODE,Air,3
 Node,195,AIRLOOP M N1 CCOIL WATER INLET,Water,1
 Node,196,AIRLOOP M N1 CCOIL WATER OUTLET,Water,1
 Node,197,AIRLOOP M N1 HCOIL WATER INLET,Water,1
 Node,198,AIRLOOP M N1 HCOIL WATER OUTLET,Water,1
 Node,199,AIRLOOP M N1 SUPPLY EQUIPMENT INLET NODE,Air,3
 Node,200,AIRLOOP M N1 MIXED AIR OUTLET,Air,5
 Node,201,AIRLOOP M N1 SUPPLY EQUIPMENT OUTLET NODE,Air,3
 Node,202,AIRLOOP M N2 CCOIL WATER INLET,Water,1
 Node,203,AIRLOOP M N2 CCOIL WATER OUTLET,Water,1
 Node,204,AIRLOOP M N2 HCOIL WATER INLET,Water,1
 Node,205,AIRLOOP M N2 HCOIL WATER OUTLET,Water,1
 Node,206,AIRLOOP M N2 SUPPLY EQUIPMENT INLET NODE,Air,3
 Node,207,AIRLOOP M N2 MIXED AIR OUTLET,Air,5
 Node,208,AIRLOOP M N2 SUPPLY EQUIPMENT OUTLET NODE,Air,3
 Node,209,AIRLOOP M S1 CCOIL WATER INLET,Water,1
 Node,210,AIRLOOP M S1 CCOIL WATER OUTLET,Water,1
 Node,211,AIRLOOP M S1 HCOIL WATER INLET,Water,1
 Node,212,AIRLOOP M S1 HCOIL WATER OUTLET,Water,1
 Node,213,AIRLOOP M S1 SUPPLY EQUIPMENT INLET NODE,Air,3
 Node,214,AIRLOOP M S1 MIXED AIR OUTLET,Air,5
 Node,215,AIRLOOP M S1 SUPPLY EQUIPMENT OUTLET NODE,Air,3
 Node,216,AIRLOOP M S2 CCOIL WATER INLET,Water,1
 Node,217,AIRLOOP M S2 CCOIL WATER OUTLET,Water,1
 Node,218,AIRLOOP M S2 HCOIL WATER INLET,Water,1
 Node,219,AIRLOOP M S2 HCOIL WATER OUTLET,Water,1
 Node,220,AIRLOOP M S2 SUPPLY EQUIPMENT INLET NODE,Air,3
 Node,221,AIRLOOP M S2 MIXED AIR OUTLET,Air,5
 Node,222,AIRLOOP M S2 SUPPLY EQUIPMENT OUTLET NODE,Air,3
 Node,223,AIRLOOP T SW CCOIL WATER INLET,Water,1
 Node,224,AIRLOOP T SW CCOIL WATER OUTLET,Water,1
 Node,225,AIRLOOP T SW HCOIL WATER INLET,Water,1
 Node,226,AIRLOOP T SW HCOIL WATER OUTLET,Water,1
 Node,227,AIRLOOP T SW SUPPLY EQUIPMENT INLET NODE,Air,3
 Node,228,AIRLOOP T SW MIXED AIR OUTLET,Air,5
 Node,229,AIRLOOP T SW SUPPLY EQUIPMENT OUTLET NODE,Air,3
 Node,230,AIRLOOP T NW CCOIL WATER INLET,Water,1
 Node,231,AIRLOOP T NW CCOIL WATER OUTLET,Water,1
 Node,232,AIRLOOP T NW HCOIL WATER INLET,Water,1
 Node,233,AIRLOOP T NW HCOIL WATER OUTLET,Water,1
 Node,234,AIRLOOP T NW SUPPLY EQUIPMENT INLET NODE,Air,3
 Node,235,AIRLOOP T NW MIXED AIR OUTLET,Air,5
 Node,236,AIRLOOP T NW SUPPLY EQUIPMENT OUTLET NODE,Air,3
 Node,237,AIRLOOP T SE CCOIL WATER INLET,Water,1
 Node,238,AIRLOOP T SE CCOIL WATER OUTLET,Water,1
 Node,239,AIRLOOP T SE HCOIL WATER INLET,Water,1
 Node,240,AIRLOOP T SE HCOIL WATER OUTLET,Water,1
 Node,241,AIRLOOP T SE SUPPLY EQUIPMENT INLET NODE,Air,3
 Node,242,AIRLOOP T SE MIXED AIR OUTLET,Air,5
 Node,243,AIRLOOP T SE SUPPLY EQUIPMENT OUTLET NODE,Air,3
 Node,244,AIRLOOP T NE CCOIL WATER INLET,Water,1
 Node,245,AIRLOOP T NE CCOIL WATER OUTLET,Water,1
 Node,246,AIRLOOP T NE HCOIL WATER INLET,Water,1
 Node,247,AIRLOOP T NE HCOIL WATER OUTLET,Water,1
 Node,248,AIRLOOP T NE SUPPLY EQUIPMENT INLET NODE,Air,3
 Node,249,AIRLOOP T NE MIXED AIR OUTLET,Air,5
 Node,250,AIRLOOP T NE SUPPLY EQUIPMENT OUTLET NODE,Air,3
 Node,251,AIRLOOP T N1 CCOIL WATER INLET,Water,1
 Node,252,AIRLOOP T N1 CCOIL WATER OUTLET,Water,1
 Node,253,AIRLOOP T N1 HCOIL WATER INLET,Water,1
 Node,254,AIRLOOP T N1 HCOIL WATER OUTLET,Water,1
 Node,255,AIRLOOP T N1 SUPPLY EQUIPMENT INLET NODE,Air,3
 Node,256,AIRLOOP T N1 MIXED AIR OUTLET,Air,5
 Node,257,AIRLOOP T N1 SUPPLY EQUIPMENT OUTLET NODE,Air,3
 Node,258,AIRLOOP T N2 CCOIL WATER INLET,Water,1
 Node,259,AIRLOOP T N2 CCOIL WATER OUTLET,Water,1
 Node,260,AIRLOOP T N2 HCOIL WATER INLET,Water,1
 Node,261,AIRLOOP T N2 HCOIL WATER OUTLET,Water,1
 Node,262,AIRLOOP T N2 SUPPLY EQUIPMENT INLET NODE,Air,3
 Node,263,AIRLOOP T N2 MIXED AIR OUTLET,Air,5
 Node,264,AIRLOOP T N2 SUPPLY EQUIPMENT OUTLET NODE,Air,3
 Node,265,AIRLOOP T S1 CCOIL WATER INLET,Water,1
 Node,266,AIRLOOP T S1 CCOIL WATER OUTLET,Water,1
 Node,267,AIRLOOP T S1 HCOIL WATER INLET,Water,1
 Node,268,AIRLOOP T S1 HCOIL WATER OUTLET,Water,1
 Node,269,AIRLOOP T S1 SUPPLY EQUIPMENT INLET NODE,Air,3
 Node,270,AIRLOOP T S1 MIXED AIR OUTLET,Air,5
 Node,271,AIRLOOP T S1 SUPPLY EQUIPMENT OUTLET NODE,Air,3
 Node,272,AIRLOOP T S2 CCOIL WATER INLET,Water,1
 Node,273,AIRLOOP T S2 CCOIL WATER OUTLET,Water,1
 Node,274,AIRLOOP T S2 HCOIL WATER INLET,Water,1
 Node,275,AIRLOOP T S2 HCOIL WATER OUTLET,Water,1
 Node,276,AIRLOOP T S2 SUPPLY EQUIPMENT INLET NODE,Air,3
 Node,277,AIRLOOP T S2 MIXED AIR OUTLET,Air,5
 Node,278,AIRLOOP T S2 SUPPLY EQUIPMENT OUTLET NODE,Air,3
 Node,279,SWHSYS1 SUPPLY INLET NODE,Water,2
 Node,280,SWHSYS1 PUMP-WATER HEATERNODEVIACONNECTOR,Water,1
 Node,281,SWHSYS1 PUMP-WATER HEATERNODE,Water,1
 Node,282,SWHSYS1 SUPPLY EQUIPMENT OUTLET NODE,Water,1
 Node,283,SWHSYS1 SUPPLY EQUIP BYPASS INLET NODE,Water,1
 Node,284,SWHSYS1 SUPPLY EQUIP BYPASS OUTLET NODE,Water,1
 Node,285,SWHSYS1 SUPPLY MIXER-SWHSYS1 SUPPLY OUTLET PIPE,Water,1
 Node,286,SWHSYS1 SUPPLY OUTLET NODE,Water,4
 Node,287,SWHSYS1 DEMAND INLET NODE,Water,2
 Node,288,SWHSYS1 DEMAND INLET PIPE-SWHSYS1 DEMAND MIXER,Water,1
 Node,289,SWHSYS1 DEMAND BYPASS PIPE INLET NODE,Water,1
 Node,290,SWHSYS1 DEMAND BYPASS PIPE OUTLET NODE,Water,1
 Node,291,SWHSYS1 DEMAND MIXER-SWHSYS1 DEMAND OUTLET PIPE,Water,1
 Node,292,SWHSYS1 DEMAND OUTLET NODE,Water,2
 Node,293,G SW APARTMENT SUB CAT WATER INLET NODE,Water,1
 Node,294,G SW APARTMENT SUB CAT WATER OUTLET NODE,Water,1
 Node,295,G NW APARTMENT SUB CAT WATER INLET NODE,Water,1
 Node,296,G NW APARTMENT SUB CAT WATER OUTLET NODE,Water,1
 Node,297,G NE APARTMENT SUB CAT WATER INLET NODE,Water,1
 Node,298,G NE APARTMENT SUB CAT WATER OUTLET NODE,Water,1
 Node,299,G N1 APARTMENT SUB CAT WATER INLET NODE,Water,1
 Node,300,G N1 APARTMENT SUB CAT WATER OUTLET NODE,Water,1
 Node,301,G N2 APARTMENT SUB CAT WATER INLET NODE,Water,1
 Node,302,G N2 APARTMENT SUB CAT WATER OUTLET NODE,Water,1
 Node,303,G S1 APARTMENT SUB CAT WATER INLET NODE,Water,1
 Node,304,G S1 APARTMENT SUB CAT WATER OUTLET NODE,Water,1
 Node,305,G S2 APARTMENT SUB CAT WATER INLET NODE,Water,1
 Node,306,G S2 APARTMENT SUB CAT WATER OUTLET NODE,Water,1
 Node,307,M SW APARTMENT SUB CAT WATER INLET NODE,Water,1
 Node,308,M SW APARTMENT SUB CAT WATER OUTLET NODE,Water,1
 Node,309,M NW APARTMENT SUB CAT WATER INLET NODE,Water,1
 Node,310,M NW APARTMENT SUB CAT WATER OUTLET NODE,Water,1
 Node,311,M SE APARTMENT SUB CAT WATER INLET NODE,Water,1
 Node,312,M SE APARTMENT SUB CAT WATER OUTLET NODE,Water,1
 Node,313,M NE APARTMENT SUB CAT WATER INLET NODE,Water,1
 Node,314,M NE APARTMENT SUB CAT WATER OUTLET NODE,Water,1
 Node,315,M N1 APARTMENT SUB CAT WATER INLET NODE,Water,1
 Node,316,M N1 APARTMENT SUB CAT WATER OUTLET NODE,Water,1
 Node,317,M N2 APARTMENT SUB CAT WATER INLET NODE,Water,1
 Node,318,M N2 APARTMENT SUB CAT WATER OUTLET NODE,Water,1
 Node,319,M S1 APARTMENT SUB CAT WATER INLET NODE,Water,1
 Node,320,M S1 APARTMENT SUB CAT WATER OUTLET NODE,Water,1
 Node,321,M S2 APARTMENT SUB CAT WATER INLET NODE,Water,1
 Node,322,M S2 APARTMENT SUB CAT WATER OUTLET NODE,Water,1
 Node,323,T SW APARTMENT SUB CAT WATER INLET NODE,Water,1
 Node,324,T SW APARTMENT SUB CAT WATER OUTLET NODE,Water,1
 Node,325,T NW APARTMENT SUB CAT WATER INLET NODE,Water,1
 Node,326,T NW APARTMENT SUB CAT WATER OUTLET NODE,Water,1
 Node,327,T SE APARTMENT SUB CAT WATER INLET NODE,Water,1
 Node,328,T SE APARTMENT SUB CAT WATER OUTLET NODE,Water,1
 Node,329,T NE APARTMENT SUB CAT WATER INLET NODE,Water,1
 Node,330,T NE APARTMENT SUB CAT WATER OUTLET NODE,Water,1
 Node,331,T N1 APARTMENT SUB CAT WATER INLET NODE,Water,1
 Node,332,T N1 APARTMENT SUB CAT WATER OUTLET NODE,Water,1
 Node,333,T N2 APARTMENT SUB CAT WATER INLET NODE,Water,1
 Node,334,T N2 APARTMENT SUB CAT WATER OUTLET NODE,Water,1
 Node,335,T S1 APARTMENT SUB CAT WATER INLET NODE,Water,1
 Node,336,T S1 APARTMENT SUB CAT WATER OUTLET NODE,Water,1
 Node,337,T S2 APARTMENT SUB CAT WATER INLET NODE,Water,1
 Node,338,T S2 APARTMENT SUB CAT WATER OUTLET NODE,Water,1
 Node,339,G SW APARTMENT AIR NODE,Air,0
 Node,340,G SW APARTMENT RETURN AIR NODE,Air,1
 Node,341,G NW APARTMENT AIR NODE,Air,0
 Node,342,G NW APARTMENT RETURN AIR NODE,Air,1
 Node,343,OFFICE AIR NODE,Air,0
 Node,344,OFFICE RETURN AIR NODE,Air,1
 Node,345,G NE APARTMENT AIR NODE,Air,0
 Node,346,G NE APARTMENT RETURN AIR NODE,Air,1
 Node,347,G N1 APARTMENT AIR NODE,Air,0
 Node,348,G N1 APARTMENT RETURN AIR NODE,Air,1
 Node,349,G N2 APARTMENT AIR NODE,Air,0
 Node,350,G N2 APARTMENT RETURN AIR NODE,Air,1
 Node,351,G S1 APARTMENT AIR NODE,Air,0
 Node,352,G S1 APARTMENT RETURN AIR NODE,Air,1
 Node,353,G S2 APARTMENT AIR NODE,Air,0
 Node,354,G S2 APARTMENT RETURN AIR NODE,Air,1
 Node,355,M SW APARTMENT AIR NODE,Air,0
 Node,356,M SW APARTMENT RETURN AIR NODE,Air,1
 Node,357,M NW APARTMENT AIR NODE,Air,0
 Node,358,M NW APARTMENT RETURN AIR NODE,Air,1
 Node,359,M SE APARTMENT AIR NODE,Air,0
 Node,360,M SE APARTMENT RETURN AIR NODE,Air,1
 Node,361,M NE APARTMENT AIR NODE,Air,0
 Node,362,M NE APARTMENT RETURN AIR NODE,Air,1
 Node,363,M N1 APARTMENT AIR NODE,Air,0
 Node,364,M N1 APARTMENT RETURN AIR NODE,Air,1
 Node,365,M N2 APARTMENT AIR NODE,Air,0
 Node,366,M N2 APARTMENT RETURN AIR NODE,Air,1
 Node,367,M S1 APARTMENT AIR NODE,Air,0
 Node,368,M S1 APARTMENT RETURN AIR NODE,Air,1
 Node,369,M S2 APARTMENT AIR NODE,Air,0
 Node,370,M S2 APARTMENT RETURN AIR NODE,Air,1
 Node,371,T SW APARTMENT AIR NODE,Air,0
 Node,372,T SW APARTMENT RETURN AIR NODE,Air,1
 Node,373,T NW APARTMENT AIR NODE,Air,0
 Node,374,T NW APARTMENT RETURN AIR NODE,Air,1
 Node,375,T SE APARTMENT AIR NODE,Air,0
 Node,376,T SE APARTMENT RETURN AIR NODE,Air,1
 Node,377,T NE APARTMENT AIR NODE,Air,0
 Node,378,T NE APARTMENT RETURN AIR NODE,Air,1
 Node,379,T N1 APARTMENT AIR NODE,Air,0
 Node,380,T N1 APARTMENT RETURN AIR NODE,Air,1
 Node,381,T N2 APARTMENT AIR NODE,Air,0
 Node,382,T N2 APARTMENT RETURN AIR NODE,Air,1
 Node,383,T S1 APARTMENT AIR NODE,Air,0
 Node,384,T S1 APARTMENT RETURN AIR NODE,Air,1
 Node,385,T S2 APARTMENT AIR NODE,Air,0
 Node,386,T S2 APARTMENT RETURN AIR NODE,Air,1
 Node,387,AIRLOOP G SW ZONE EQUIPMENT INLET NODE,Air,2
 Node,388,AIRLOOP G NW ZONE EQUIPMENT INLET NODE,Air,2
 Node,389,AIRLOOP OFFICE ZONE EQUIPMENT INLET NODE,Air,2
 Node,390,AIRLOOP G NE ZONE EQUIPMENT INLET NODE,Air,2
 Node,391,AIRLOOP G N1 ZONE EQUIPMENT INLET NODE,Air,2
 Node,392,AIRLOOP G N2 ZONE EQUIPMENT INLET NODE,Air,2
 Node,393,AIRLOOP G S1 ZONE EQUIPMENT INLET NODE,Air,2
 Node,394,AIRLOOP G S2 ZONE EQUIPMENT INLET NODE,Air,2
 Node,395,AIRLOOP M SW ZONE EQUIPMENT INLET NODE,Air,2
 Node,396,AIRLOOP M NW ZONE EQUIPMENT INLET NODE,Air,2
 Node,397,AIRLOOP M SE ZONE EQUIPMENT INLET NODE,Air,2
 Node,398,AIRLOOP M NE ZONE EQUIPMENT INLET NODE,Air,2
 Node,399,AIRLOOP M N1 ZONE EQUIPMENT INLET NODE,Air,2
 Node,400,AIRLOOP M N2 ZONE EQUIPMENT INLET NODE,Air,2
 Node,401,AIRLOOP M S1 ZONE EQUIPMENT INLET NODE,Air,2
 Node,402,AIRLOOP M S2 ZONE EQUIPMENT INLET NODE,Air,2
 Node,403,AIRLOOP T SW ZONE EQUIPMENT INLET NODE,Air,2
 Node,404,AIRLOOP T NW ZONE EQUIPMENT INLET NODE,Air,2
 Node,405,AIRLOOP T SE ZONE EQUIPMENT INLET NODE,Air,2
 Node,406,AIRLOOP T NE ZONE EQUIPMENT INLET NODE,Air,2
 Node,407,AIRLOOP T N1 ZONE EQUIPMENT INLET NODE,Air,2
 Node,408,AIRLOOP T N2 ZONE EQUIPMENT INLET NODE,Air,2
 Node,409,AIRLOOP T S1 ZONE EQUIPMENT INLET NODE,Air,2
 Node,410,AIRLOOP T S2 ZONE EQUIPMENT INLET NODE,Air,2
 Node,411,AIRLOOP G SW ZONE EQUIPMENT OUTLET NODE,Air,2
 Node,412,AIRLOOP G NW ZONE EQUIPMENT OUTLET NODE,Air,2
 Node,413,AIRLOOP OFFICE ZONE EQUIPMENT OUTLET NODE,Air,2
 Node,414,AIRLOOP G NE ZONE EQUIPMENT OUTLET NODE,Air,2
 Node,415,AIRLOOP G N1 ZONE EQUIPMENT OUTLET NODE,Air,2
 Node,416,AIRLOOP G N2 ZONE EQUIPMENT OUTLET NODE,Air,2
 Node,417,AIRLOOP G S1 ZONE EQUIPMENT OUTLET NODE,Air,2
 Node,418,AIRLOOP G S2 ZONE EQUIPMENT OUTLET NODE,Air,2
 Node,419,AIRLOOP M SW ZONE EQUIPMENT OUTLET NODE,Air,2
 Node,420,AIRLOOP M NW ZONE EQUIPMENT OUTLET NODE,Air,2
 Node,421,AIRLOOP M SE ZONE EQUIPMENT OUTLET NODE,Air,2
 Node,422,AIRLOOP M NE ZONE EQUIPMENT OUTLET NODE,Air,2
 Node,423,AIRLOOP M N1 ZONE EQUIPMENT OUTLET NODE,Air,2
 Node,424,AIRLOOP M N2 ZONE EQUIPMENT OUTLET NODE,Air,2
 Node,425,AIRLOOP M S1 ZONE EQUIPMENT OUTLET NODE,Air,2
 Node,426,AIRLOOP M S2 ZONE EQUIPMENT OUTLET NODE,Air,2
 Node,427,AIRLOOP T SW ZONE EQUIPMENT OUTLET NODE,Air,2
 Node,428,AIRLOOP T NW ZONE EQUIPMENT OUTLET NODE,Air,2
 Node,429,AIRLOOP T SE ZONE EQUIPMENT OUTLET NODE,Air,2
 Node,430,AIRLOOP T NE ZONE EQUIPMENT OUTLET NODE,Air,2
 Node,431,AIRLOOP T N1 ZONE EQUIPMENT OUTLET NODE,Air,2
 Node,432,AIRLOOP T N2 ZONE EQUIPMENT OUTLET NODE,Air,2
 Node,433,AIRLOOP T S1 ZONE EQUIPMENT OUTLET NODE,Air,2
 Node,434,AIRLOOP T S2 ZONE EQUIPMENT OUTLET NODE,Air,2
 Node,435,COMMON OSA INLET NODE,Air,24
 Node,436,CENTRAL TOWER OUTDOOR AIR INLET NODE,Air,0
 Node,437,G SW APARTMENT OUTSIDE AIR NODE,Air,2
 Node,438,G NW APARTMENT OUTSIDE AIR NODE,Air,2
 Node,439,G NE APARTMENT OUTSIDE AIR NODE,Air,2
 Node,440,G N1 APARTMENT OUTSIDE AIR NODE,Air,2
 Node,441,G N2 APARTMENT OUTSIDE AIR NODE,Air,2
 Node,442,G S1 APARTMENT OUTSIDE AIR NODE,Air,2
 Node,443,G S2 APARTMENT OUTSIDE AIR NODE,Air,2
 Node,444,M SW APARTMENT OUTSIDE AIR NODE,Air,2
 Node,445,M NW APARTMENT OUTSIDE AIR NODE,Air,2
 Node,446,M SE APARTMENT OUTSIDE AIR NODE,Air,2
 Node,447,M NE APARTMENT OUTSIDE AIR NODE,Air,2
 Node,448,M N1 APARTMENT OUTSIDE AIR NODE,Air,2
 Node,449,M N2 APARTMENT OUTSIDE AIR NODE,Air,2
 Node,450,M S1 APARTMENT OUTSIDE AIR NODE,Air,2
 Node,451,M S2 APARTMENT OUTSIDE AIR NODE,Air,2
 Node,452,T SW APARTMENT OUTSIDE AIR NODE,Air,2
 Node,453,T NW APARTMENT OUTSIDE AIR NODE,Air,2
 Node,454,T SE APARTMENT OUTSIDE AIR NODE,Air,2
 Node,455,T NE APARTMENT OUTSIDE AIR NODE,Air,2
 Node,456,T N1 APARTMENT OUTSIDE AIR NODE,Air,2
 Node,457,T N2 APARTMENT OUTSIDE AIR NODE,Air,2
 Node,458,T S1 APARTMENT OUTSIDE AIR NODE,Air,2
 Node,459,T S2 APARTMENT OUTSIDE AIR NODE,Air,2
 Node,460,G SW APARTMENT ADU INLET NODE,Air,1
 Node,461,G NW APARTMENT ADU INLET NODE,Air,1
 Node,462,OFFICE ADU INLET NODE,Air,1
 Node,463,G NE APARTMENT ADU INLET NODE,Air,1
 Node,464,G N1 APARTMENT ADU INLET NODE,Air,1
 Node,465,G N2 APARTMENT ADU INLET NODE,Air,1
 Node,466,G S1 APARTMENT ADU INLET NODE,Air,1
 Node,467,G S2 APARTMENT ADU INLET NODE,Air,1
 Node,468,M SW APARTMENT ADU INLET NODE,Air,1
 Node,469,M NW APARTMENT ADU INLET NODE,Air,1
 Node,470,M SE APARTMENT ADU INLET NODE,Air,1
 Node,471,M NE APARTMENT ADU INLET NODE,Air,1
 Node,472,M N1 APARTMENT ADU INLET NODE,Air,1
 Node,473,M N2 APARTMENT ADU INLET NODE,Air,1
 Node,474,M S1 APARTMENT ADU INLET NODE,Air,1
 Node,475,M S2 APARTMENT ADU INLET NODE,Air,1
 Node,476,T SW APARTMENT ADU INLET NODE,Air,1
 Node,477,T NW APARTMENT ADU INLET NODE,Air,1
 Node,478,T SE APARTMENT ADU INLET NODE,Air,1
 Node,479,T NE APARTMENT ADU INLET NODE,Air,1
 Node,480,T N1 APARTMENT ADU INLET NODE,Air,1
 Node,481,T N2 APARTMENT ADU INLET NODE,Air,1
 Node,482,T S1 APARTMENT ADU INLET NODE,Air,1
 Node,483,T S2 APARTMENT ADU INLET NODE,Air,1
 Node,484,G SW APARTMENT ERV OUTLET NODE,Air,1
 Node,485,G SW APARTMENT ERV SECONDARY OUTLET NODE,Air,1
 Node,486,G NW APARTMENT ERV OUTLET NODE,Air,1
 Node,487,G NW APARTMENT ERV SECONDARY OUTLET NODE,Air,1
 Node,488,G NE APARTMENT ERV OUTLET NODE,Air,1
 Node,489,G NE APARTMENT ERV SECONDARY OUTLET NODE,Air,1
 Node,490,G N1 APARTMENT ERV OUTLET NODE,Air,1
 Node,491,G N1 APARTMENT ERV SECONDARY OUTLET NODE,Air,1
 Node,492,G N2 APARTMENT ERV OUTLET NODE,Air,1
 Node,493,G N2 APARTMENT ERV SECONDARY OUTLET NODE,Air,1
 Node,494,G S1 APARTMENT ERV OUTLET NODE,Air,1
 Node,495,G S1 APARTMENT ERV SECONDARY OUTLET NODE,Air,1
 Node,496,G S2 APARTMENT ERV OUTLET NODE,Air,1
 Node,497,G S2 APARTMENT ERV SECONDARY OUTLET NODE,Air,1
 Node,498,M SW APARTMENT ERV OUTLET NODE,Air,1
 Node,499,M SW APARTMENT ERV SECONDARY OUTLET NODE,Air,1
 Node,500,M NW APARTMENT ERV OUTLET NODE,Air,1
 Node,501,M NW APARTMENT ERV SECONDARY OUTLET NODE,Air,1
 Node,502,M SE APARTMENT ERV OUTLET NODE,Air,1
 Node,503,M SE APARTMENT ERV SECONDARY OUTLET NODE,Air,1
 Node,504,M NE APARTMENT ERV OUTLET NODE,Air,1
 Node,505,M NE APARTMENT ERV SECONDARY OUTLET NODE,Air,1
 Node,506,M N1 APARTMENT ERV OUTLET NODE,Air,1
 Node,507,M N1 APARTMENT ERV SECONDARY OUTLET NODE,Air,1
 Node,508,M N2 APARTMENT ERV OUTLET NODE,Air,1
 Node,509,M N2 APARTMENT ERV SECONDARY OUTLET NODE,Air,1
 Node,510,M S1 APARTMENT ERV OUTLET NODE,Air,1
 Node,511,M S1 APARTMENT ERV SECONDARY OUTLET NODE,Air,1
 Node,512,M S2 APARTMENT ERV OUTLET NODE,Air,1
 Node,513,M S2 APARTMENT ERV SECONDARY OUTLET NODE,Air,1
 Node,514,T SW APARTMENT ERV OUTLET NODE,Air,1
 Node,515,T SW APARTMENT ERV SECONDARY OUTLET NODE,Air,1
 Node,516,T NW APARTMENT ERV OUTLET NODE,Air,1
 Node,517,T NW APARTMENT ERV SECONDARY OUTLET NODE,Air,1
 Node,518,T SE APARTMENT ERV OUTLET NODE,Air,1
 Node,519,T SE APARTMENT ERV SECONDARY OUTLET NODE,Air,1
 Node,520,T NE APARTMENT ERV OUTLET NODE,Air,1
 Node,521,T NE APARTMENT ERV SECONDARY OUTLET NODE,Air,1
 Node,522,T N1 APARTMENT ERV OUTLET NODE,Air,1
 Node,523,T N1 APARTMENT ERV SECONDARY OUTLET NODE,Air,1
 Node,524,T N2 APARTMENT ERV OUTLET NODE,Air,1
 Node,525,T N2 APARTMENT ERV SECONDARY OUTLET NODE,Air,1
 Node,526,T S1 APARTMENT ERV OUTLET NODE,Air,1
 Node,527,T S1 APARTMENT ERV SECONDARY OUTLET NODE,Air,1
 Node,528,T S2 APARTMENT ERV OUTLET NODE,Air,1
 Node,529,T S2 APARTMENT ERV SECONDARY OUTLET NODE,Air,1
 Node,530,AIRLOOP G SW SUPPLY FAN OUTLET,Air,1
 Node,531,G SW APARTMENT ERV EXH FAN OUTLET NODE,Air,1
 Node,532,AIRLOOP G NW SUPPLY FAN OUTLET,Air,1
 Node,533,G NW APARTMENT ERV EXH FAN OUTLET NODE,Air,1
 Node,534,AIRLOOP OFFICE SUPPLY FAN OUTLET,Air,1
 Node,535,AIRLOOP G NE SUPPLY FAN OUTLET,Air,1
 Node,536,G NE APARTMENT ERV EXH FAN OUTLET NODE,Air,1
 Node,537,AIRLOOP G N1 SUPPLY FAN OUTLET,Air,1
 Node,538,G N1 APARTMENT ERV EXH FAN OUTLET NODE,Air,1
 Node,539,AIRLOOP G N2 SUPPLY FAN OUTLET,Air,1
 Node,540,G N2 APARTMENT ERV EXH FAN OUTLET NODE,Air,1
 Node,541,AIRLOOP G S1 SUPPLY FAN OUTLET,Air,1
 Node,542,G S1 APARTMENT ERV EXH FAN OUTLET NODE,Air,1
 Node,543,AIRLOOP G S2 SUPPLY FAN OUTLET,Air,1
 Node,544,G S2 APARTMENT ERV EXH FAN OUTLET NODE,Air,1
 Node,545,AIRLOOP M SW SUPPLY FAN OUTLET,Air,1
 Node,546,M SW APARTMENT ERV EXH FAN OUTLET NODE,Air,1
 Node,547,AIRLOOP M NW SUPPLY FAN OUTLET,Air,1
 Node,548,M NW APARTMENT ERV EXH FAN OUTLET NODE,Air,1
 Node,549,AIRLOOP M SE SUPPLY FAN OUTLET,Air,1
 Node,550,M SE APARTMENT ERV EXH FAN OUTLET NODE,Air,1
 Node,551,AIRLOOP M NE SUPPLY FAN OUTLET,Air,1
 Node,552,M NE APARTMENT ERV EXH FAN OUTLET NODE,Air,1
 Node,553,AIRLOOP M N1 SUPPLY FAN OUTLET,Air,1
 Node,554,M N1 APARTMENT ERV EXH FAN OUTLET NODE,Air,1
 Node,555,AIRLOOP M N2 SUPPLY FAN OUTLET,Air,1
 Node,556,M N2 APARTMENT ERV EXH FAN OUTLET NODE,Air,1
 Node,557,AIRLOOP M S1 SUPPLY FAN OUTLET,Air,1
 Node,558,M S1 APARTMENT ERV EXH FAN OUTLET NODE,Air,1
 Node,559,AIRLOOP M S2 SUPPLY FAN OUTLET,Air,1
 Node,560,M S2 APARTMENT ERV EXH FAN OUTLET NODE,Air,1
 Node,561,AIRLOOP T SW SUPPLY FAN OUTLET,Air,1
 Node,562,T SW APARTMENT ERV EXH FAN OUTLET NODE,Air,1
 Node,563,AIRLOOP T NW SUPPLY FAN OUTLET,Air,1
 Node,564,T NW APARTMENT ERV EXH FAN OUTLET NODE,Air,1
 Node,565,AIRLOOP T SE SUPPLY FAN OUTLET,Air,1
 Node,566,T SE APARTMENT ERV EXH FAN OUTLET NODE,Air,1
 Node,567,AIRLOOP T NE SUPPLY FAN OUTLET,Air,1
 Node,568,T NE APARTMENT ERV EXH FAN OUTLET NODE,Air,1
 Node,569,AIRLOOP T N1 SUPPLY FAN OUTLET,Air,1
 Node,570,T N1 APARTMENT ERV EXH FAN OUTLET NODE,Air,1
 Node,571,AIRLOOP T N2 SUPPLY FAN OUTLET,Air,1
 Node,572,T N2 APARTMENT ERV EXH FAN OUTLET NODE,Air,1
 Node,573,AIRLOOP T S1 SUPPLY FAN OUTLET,Air,1
 Node,574,T S1 APARTMENT ERV EXH FAN OUTLET NODE,Air,1
 Node,575,AIRLOOP T S2 SUPPLY FAN OUTLET,Air,1
 Node,576,T S2 APARTMENT ERV EXH FAN OUTLET NODE,Air,1
 Node,577,AIRLOOP G SW OARELIEF NODE,Air,1
 Node,578,AIRLOOP G NW OARELIEF NODE,Air,1
 Node,579,AIRLOOP OFFICE OARELIEF NODE,Air,1
 Node,580,AIRLOOP G NE OARELIEF NODE,Air,1
 Node,581,AIRLOOP G N1 OARELIEF NODE,Air,1
 Node,582,AIRLOOP G N2 OARELIEF NODE,Air,1
 Node,583,AIRLOOP G S1 OARELIEF NODE,Air,1
 Node,584,AIRLOOP G S2 OARELIEF NODE,Air,1
 Node,585,AIRLOOP M SW OARELIEF NODE,Air,1
 Node,586,AIRLOOP M NW OARELIEF NODE,Air,1
 Node,587,AIRLOOP M SE OARELIEF NODE,Air,1
 Node,588,AIRLOOP M NE OARELIEF NODE,Air,1
 Node,589,AIRLOOP M N1 OARELIEF NODE,Air,1
 Node,590,AIRLOOP M N2 OARELIEF NODE,Air,1
 Node,591,AIRLOOP M S1 OARELIEF NODE,Air,1
 Node,592,AIRLOOP M S2 OARELIEF NODE,Air,1
 Node,593,AIRLOOP T SW OARELIEF NODE,Air,1
 Node,594,AIRLOOP T NW OARELIEF NODE,Air,1
 Node,595,AIRLOOP T SE OARELIEF NODE,Air,1
 Node,596,AIRLOOP T NE OARELIEF NODE,Air,1
 Node,597,AIRLOOP T N1 OARELIEF NODE,Air,1
 Node,598,AIRLOOP T N2 OARELIEF NODE,Air,1
 Node,599,AIRLOOP T S1 OARELIEF NODE,Air,1
 Node,600,AIRLOOP T S2 OARELIEF NODE,Air,1
 Node,601,AIRLOOP G N1 COOLING COIL OUTLET,Air,1
 Node,602,AIRLOOP G N2 COOLING COIL OUTLET,Air,1
 Node,603,AIRLOOP G NE COOLING COIL OUTLET,Air,1
 Node,604,AIRLOOP G NW COOLING COIL OUTLET,Air,1
 Node,605,AIRLOOP G S1 COOLING COIL OUTLET,Air,1
 Node,606,AIRLOOP G S2 COOLING COIL OUTLET,Air,1
 Node,607,AIRLOOP G SW COOLING COIL OUTLET,Air,1
 Node,608,AIRLOOP M N1 COOLING COIL OUTLET,Air,1
 Node,609,AIRLOOP M N2 COOLING COIL OUTLET,Air,1
 Node,610,AIRLOOP M NE COOLING COIL OUTLET,Air,1
 Node,611,AIRLOOP M NW COOLING COIL OUTLET,Air,1
 Node,612,AIRLOOP M S1 COOLING COIL OUTLET,Air,1
 Node,613,AIRLOOP M S2 COOLING COIL OUTLET,Air,1
 Node,614,AIRLOOP M SE COOLING COIL OUTLET,Air,1
 Node,615,AIRLOOP M SW COOLING COIL OUTLET,Air,1
 Node,616,AIRLOOP OFFICE COOLING COIL OUTLET,Air,1
 Node,617,AIRLOOP T N1 COOLING COIL OUTLET,Air,1
 Node,618,AIRLOOP T N2 COOLING COIL OUTLET,Air,1
 Node,619,AIRLOOP T NE COOLING COIL OUTLET,Air,1
 Node,620,AIRLOOP T NW COOLING COIL OUTLET,Air,1
 Node,621,AIRLOOP T S1 COOLING COIL OUTLET,Air,1
 Node,622,AIRLOOP T S2 COOLING COIL OUTLET,Air,1
 Node,623,AIRLOOP T SE COOLING COIL OUTLET,Air,1
 Node,624,AIRLOOP T SW COOLING COIL OUTLET,Air,1
 Node,625,AIRLOOP G N1 HEATING COIL OUTLET,Air,1
 Node,626,AIRLOOP G N2 HEATING COIL OUTLET,Air,1
 Node,627,AIRLOOP G NE HEATING COIL OUTLET,Air,1
 Node,628,AIRLOOP G NW HEATING COIL OUTLET,Air,1
 Node,629,AIRLOOP G S1 HEATING COIL OUTLET,Air,1
 Node,630,AIRLOOP G S2 HEATING COIL OUTLET,Air,1
 Node,631,AIRLOOP G SW HEATING COIL OUTLET,Air,1
 Node,632,AIRLOOP M N1 HEATING COIL OUTLET,Air,1
 Node,633,AIRLOOP M N2 HEATING COIL OUTLET,Air,1
 Node,634,AIRLOOP M NE HEATING COIL OUTLET,Air,1
 Node,635,AIRLOOP M NW HEATING COIL OUTLET,Air,1
 Node,636,AIRLOOP M S1 HEATING COIL OUTLET,Air,1
 Node,637,AIRLOOP M S2 HEATING COIL OUTLET,Air,1
 Node,638,AIRLOOP M SE HEATING COIL OUTLET,Air,1
 Node,639,AIRLOOP M SW HEATING COIL OUTLET,Air,1
 Node,640,AIRLOOP OFFICE HEATING COIL OUTLET,Air,1
 Node,641,AIRLOOP T N1 HEATING COIL OUTLET,Air,1
 Node,642,AIRLOOP T N2 HEATING COIL OUTLET,Air,1
 Node,643,AIRLOOP T NE HEATING COIL OUTLET,Air,1
 Node,644,AIRLOOP T NW HEATING COIL OUTLET,Air,1
 Node,645,AIRLOOP T S1 HEATING COIL OUTLET,Air,1
 Node,646,AIRLOOP T S2 HEATING COIL OUTLET,Air,1
 Node,647,AIRLOOP T SE HEATING COIL OUTLET,Air,1
 Node,648,AIRLOOP T SW HEATING COIL OUTLET,Air,1
! ===============================================================
! Suspicious nodes have 0 references.  It is normal for some nodes, however.
! Listing nodes with 0 references (culled from previous list):
! <Suspicious Node>,<NodeNumber>,<Node Name>,<Node Fluid Type>,<# Times Node Referenced After Definition>
 Suspicious Node,339,G SW APARTMENT AIR NODE,Air,0
 Suspicious Node,341,G NW APARTMENT AIR NODE,Air,0
 Suspicious Node,343,OFFICE AIR NODE,Air,0
 Suspicious Node,345,G NE APARTMENT AIR NODE,Air,0
 Suspicious Node,347,G N1 APARTMENT AIR NODE,Air,0
 Suspicious Node,349,G N2 APARTMENT AIR NODE,Air,0
 Suspicious Node,351,G S1 APARTMENT AIR NODE,Air,0
 Suspicious Node,353,G S2 APARTMENT AIR NODE,Air,0
 Suspicious Node,355,M SW APARTMENT AIR NODE,Air,0
 Suspicious Node,357,M NW APARTMENT AIR NODE,Air,0
 Suspicious Node,359,M SE APARTMENT AIR NODE,Air,0
 Suspicious Node,361,M NE APARTMENT AIR NODE,Air,0
 Suspicious Node,363,M N1 APARTMENT AIR NODE,Air,0
 Suspicious Node,365,M N2 APARTMENT AIR NODE,Air,0
 Suspicious Node,367,M S1 APARTMENT AIR NODE,Air,0
 Suspicious Node,369,M S2 APARTMENT AIR NODE,Air,0
 Suspicious Node,371,T SW APARTMENT AIR NODE,Air,0
 Suspicious Node,373,T NW APARTMENT AIR NODE,Air,0
 Suspicious Node,375,T SE APARTMENT AIR NODE,Air,0
 Suspicious Node,377,T NE APARTMENT AIR NODE,Air,0
 Suspicious Node,379,T N1 APARTMENT AIR NODE,Air,0
 Suspicious Node,381,T N2 APARTMENT AIR NODE,Air,0
 Suspicious Node,383,T S1 APARTMENT AIR NODE,Air,0
 Suspicious Node,385,T S2 APARTMENT AIR NODE,Air,0
 Suspicious Node,436,CENTRAL TOWER OUTDOOR AIR INLET NODE,Air,0
! ===============================================================
! <#Branch Lists>,<Number of Branch Lists>
 #Branch Lists,28
! <Branch List>,<Branch List Count>,<Branch List Name>,<Loop Name>,<Loop Type>,<Number of Branches>
! <Branch>,<Branch Count>,<Branch Name>,<Loop Name>,<Loop Type>,<Branch Inlet Node Name>,<Branch Outlet Node Name>
 Branch List,1,PLANT SUPPLY SIDE BRANCHES,SINGLE WATER PLANT LOOP,Plant Supply,5
   Branch,1,PLANT SUPPLY INLET BRANCH,SINGLE WATER PLANT LOOP,Plant Supply,PLANT SUPPLY INLET NODE,PLANT PUMP OUTLET NODE
   Branch,2,PLANT SUPPLY TOWER BRANCH,SINGLE WATER PLANT LOOP,Plant Supply,CENTRAL TOWER INLET NODE,CENTRAL TOWER OUTLET NODE
   Branch,3,CENTRAL BOILER BRANCH,SINGLE WATER PLANT LOOP,Plant Supply,CENTRAL BOILER INLET NODE,CENTRAL BOILER OUTLET NODE
   Branch,4,PLANT SUPPLY BYPASS BRANCH,SINGLE WATER PLANT LOOP,Plant Supply,PLANT SUPPLY BYPASS INLET NODE,PLANT SUPPLY BYPASS OUTLET NODE
   Branch,5,PLANT SUPPLY OUTLET BRANCH,SINGLE WATER PLANT LOOP,Plant Supply,PLANT SUPPLY EXIT PIPE INLET NODE,PLANT SUPPLY OUTLET NODE
 Branch List,2,PLANT DEMAND SIDE BRANCHES,SINGLE WATER PLANT LOOP,Plant Demand,51
   Branch,1,PLANT DEMAND INLET BRANCH,SINGLE WATER PLANT LOOP,Plant Demand,PLANT DEMAND INLET NODE,PLANT DEMAND ENTRANCE PIPE OUTLET NODE
   Branch,2,WSHP COOLING PLANT BRANCH G SW APARTMENT,SINGLE WATER PLANT LOOP,Plant Demand,AIRLOOP G SW CCOIL WATER INLET,AIRLOOP G SW CCOIL WATER OUTLET
   Branch,3,WSHP HEATING PLANT BRANCH G SW APARTMENT,SINGLE WATER PLANT LOOP,Plant Demand,AIRLOOP G SW HCOIL WATER INLET,AIRLOOP G SW HCOIL WATER OUTLET
   Branch,4,WSHP COOLING PLANT BRANCH G NW APARTMENT,SINGLE WATER PLANT LOOP,Plant Demand,AIRLOOP G NW CCOIL WATER INLET,AIRLOOP G NW CCOIL WATER OUTLET
   Branch,5,WSHP HEATING PLANT BRANCH G NW APARTMENT,SINGLE WATER PLANT LOOP,Plant Demand,AIRLOOP G NW HCOIL WATER INLET,AIRLOOP G NW HCOIL WATER OUTLET
   Branch,6,WSHP COOLING PLANT BRANCH OFFICE,SINGLE WATER PLANT LOOP,Plant Demand,AIRLOOP OFFICE CCOIL WATER INLET,AIRLOOP OFFICE CCOIL WATER OUTLET
   Branch,7,WSHP HEATING PLANT BRANCH OFFICE,SINGLE WATER PLANT LOOP,Plant Demand,AIRLOOP OFFICE HCOIL WATER INLET,AIRLOOP OFFICE HCOIL WATER OUTLET
   Branch,8,WSHP COOLING PLANT BRANCH G NE APARTMENT,SINGLE WATER PLANT LOOP,Plant Demand,AIRLOOP G NE CCOIL WATER INLET,AIRLOOP G NE CCOIL WATER OUTLET
   Branch,9,WSHP HEATING PLANT BRANCH G NE APARTMENT,SINGLE WATER PLANT LOOP,Plant Demand,AIRLOOP G NE HCOIL WATER INLET,AIRLOOP G NE HCOIL WATER OUTLET
   Branch,10,WSHP COOLING PLANT BRANCH G N1 APARTMENT,SINGLE WATER PLANT LOOP,Plant Demand,AIRLOOP G N1 CCOIL WATER INLET,AIRLOOP G N1 CCOIL WATER OUTLET
   Branch,11,WSHP HEATING PLANT BRANCH G N1 APARTMENT,SINGLE WATER PLANT LOOP,Plant Demand,AIRLOOP G N1 HCOIL WATER INLET,AIRLOOP G N1 HCOIL WATER OUTLET
   Branch,12,WSHP COOLING PLANT BRANCH G N2 APARTMENT,SINGLE WATER PLANT LOOP,Plant Demand,AIRLOOP G N2 CCOIL WATER INLET,AIRLOOP G N2 CCOIL WATER OUTLET
   Branch,13,WSHP HEATING PLANT BRANCH G N2 APARTMENT,SINGLE WATER PLANT LOOP,Plant Demand,AIRLOOP G N2 HCOIL WATER INLET,AIRLOOP G N2 HCOIL WATER OUTLET
   Branch,14,WSHP COOLING PLANT BRANCH G S1 APARTMENT,SINGLE WATER PLANT LOOP,Plant Demand,AIRLOOP G S1 CCOIL WATER INLET,AIRLOOP G S1 CCOIL WATER OUTLET
   Branch,15,WSHP HEATING PLANT BRANCH G S1 APARTMENT,SINGLE WATER PLANT LOOP,Plant Demand,AIRLOOP G S1 HCOIL WATER INLET,AIRLOOP G S1 HCOIL WATER OUTLET
   Branch,16,WSHP COOLING PLANT BRANCH G S2 APARTMENT,SINGLE WATER PLANT LOOP,Plant Demand,AIRLOOP G S2 CCOIL WATER INLET,AIRLOOP G S2 CCOIL WATER OUTLET
   Branch,17,WSHP HEATING PLANT BRANCH G S2 APARTMENT,SINGLE WATER PLANT LOOP,Plant Demand,AIRLOOP G S2 HCOIL WATER INLET,AIRLOOP G S2 HCOIL WATER OUTLET
   Branch,18,WSHP COOLING PLANT BRANCH M SW APARTMENT,SINGLE WATER PLANT LOOP,Plant Demand,AIRLOOP M SW CCOIL WATER INLET,AIRLOOP M SW CCOIL WATER OUTLET
   Branch,19,WSHP HEATING PLANT BRANCH M SW APARTMENT,SINGLE WATER PLANT LOOP,Plant Demand,AIRLOOP M SW HCOIL WATER INLET,AIRLOOP M SW HCOIL WATER OUTLET
   Branch,20,WSHP COOLING PLANT BRANCH M NW APARTMENT,SINGLE WATER PLANT LOOP,Plant Demand,AIRLOOP M NW CCOIL WATER INLET,AIRLOOP M NW CCOIL WATER OUTLET
   Branch,21,WSHP HEATING PLANT BRANCH M NW APARTMENT,SINGLE WATER PLANT LOOP,Plant Demand,AIRLOOP M NW HCOIL WATER INLET,AIRLOOP M NW HCOIL WATER OUTLET
   Branch,22,WSHP COOLING PLANT BRANCH M SE APARTMENT,SINGLE WATER PLANT LOOP,Plant Demand,AIRLOOP M SE CCOIL WATER INLET,AIRLOOP M SE CCOIL WATER OUTLET
   Branch,23,WSHP HEATING PLANT BRANCH M SE APARTMENT,SINGLE WATER PLANT LOOP,Plant Demand,AIRLOOP M SE HCOIL WATER INLET,AIRLOOP M SE HCOIL WATER OUTLET
   Branch,24,WSHP COOLING PLANT BRANCH M NE APARTMENT,SINGLE WATER PLANT LOOP,Plant Demand,AIRLOOP M NE CCOIL WATER INLET,AIRLOOP M NE CCOIL WATER OUTLET
   Branch,25,WSHP HEATING PLANT BRANCH M NE APARTMENT,SINGLE WATER PLANT LOOP,Plant Demand,AIRLOOP M NE HCOIL WATER INLET,AIRLOOP M NE HCOIL WATER OUTLET
   Branch,26,WSHP COOLING PLANT BRANCH M N1 APARTMENT,SINGLE WATER PLANT LOOP,Plant Demand,AIRLOOP M N1 CCOIL WATER INLET,AIRLOOP M N1 CCOIL WATER OUTLET
   Branch,27,WSHP HEATING PLANT BRANCH M N1 APARTMENT,SINGLE WATER PLANT LOOP,Plant Demand,AIRLOOP M N1 HCOIL WATER INLET,AIRLOOP M N1 HCOIL WATER OUTLET
   Branch,28,WSHP COOLING PLANT BRANCH M N2 APARTMENT,SINGLE WATER PLANT LOOP,Plant Demand,AIRLOOP M N2 CCOIL WATER INLET,AIRLOOP M N2 CCOIL WATER OUTLET
   Branch,29,WSHP HEATING PLANT BRANCH M N2 APARTMENT,SINGLE WATER PLANT LOOP,Plant Demand,AIRLOOP M N2 HCOIL WATER INLET,AIRLOOP M N2 HCOIL WATER OUTLET
   Branch,30,WSHP COOLING PLANT BRANCH M S1 APARTMENT,SINGLE WATER PLANT LOOP,Plant Demand,AIRLOOP M S1 CCOIL WATER INLET,AIRLOOP M S1 CCOIL WATER OUTLET
   Branch,31,WSHP HEATING PLANT BRANCH M S1 APARTMENT,SINGLE WATER PLANT LOOP,Plant Demand,AIRLOOP M S1 HCOIL WATER INLET,AIRLOOP M S1 HCOIL WATER OUTLET
   Branch,32,WSHP COOLING PLANT BRANCH M S2 APARTMENT,SINGLE WATER PLANT LOOP,Plant Demand,AIRLOOP M S2 CCOIL WATER INLET,AIRLOOP M S2 CCOIL WATER OUTLET
   Branch,33,WSHP HEATING PLANT BRANCH M S2 APARTMENT,SINGLE WATER PLANT LOOP,Plant Demand,AIRLOOP M S2 HCOIL WATER INLET,AIRLOOP M S2 HCOIL WATER OUTLET
   Branch,34,WSHP COOLING PLANT BRANCH T SW APARTMENT,SINGLE WATER PLANT LOOP,Plant Demand,AIRLOOP T SW CCOIL WATER INLET,AIRLOOP T SW CCOIL WATER OUTLET
   Branch,35,WSHP HEATING PLANT BRANCH T SW APARTMENT,SINGLE WATER PLANT LOOP,Plant Demand,AIRLOOP T SW HCOIL WATER INLET,AIRLOOP T SW HCOIL WATER OUTLET
   Branch,36,WSHP COOLING PLANT BRANCH T NW APARTMENT,SINGLE WATER PLANT LOOP,Plant Demand,AIRLOOP T NW CCOIL WATER INLET,AIRLOOP T NW CCOIL WATER OUTLET
   Branch,37,WSHP HEATING PLANT BRANCH T NW APARTMENT,SINGLE WATER PLANT LOOP,Plant Demand,AIRLOOP T NW HCOIL WATER INLET,AIRLOOP T NW HCOIL WATER OUTLET
   Branch,38,WSHP COOLING PLANT BRANCH T SE APARTMENT,SINGLE WATER PLANT LOOP,Plant Demand,AIRLOOP T SE CCOIL WATER INLET,AIRLOOP T SE CCOIL WATER OUTLET
   Branch,39,WSHP HEATING PLANT BRANCH T SE APARTMENT,SINGLE WATER PLANT LOOP,Plant Demand,AIRLOOP T SE HCOIL WATER INLET,AIRLOOP T SE HCOIL WATER OUTLET
   Branch,40,WSHP COOLING PLANT BRANCH T NE APARTMENT,SINGLE WATER PLANT LOOP,Plant Demand,AIRLOOP T NE CCOIL WATER INLET,AIRLOOP T NE CCOIL WATER OUTLET
   Branch,41,WSHP HEATING PLANT BRANCH T NE APARTMENT,SINGLE WATER PLANT LOOP,Plant Demand,AIRLOOP T NE HCOIL WATER INLET,AIRLOOP T NE HCOIL WATER OUTLET
   Branch,42,WSHP COOLING PLANT BRANCH T N1 APARTMENT,SINGLE WATER PLANT LOOP,Plant Demand,AIRLOOP T N1 CCOIL WATER INLET,AIRLOOP T N1 CCOIL WATER OUTLET
   Branch,43,WSHP HEATING PLANT BRANCH T N1 APARTMENT,SINGLE WATER PLANT LOOP,Plant Demand,AIRLOOP T N1 HCOIL WATER INLET,AIRLOOP T N1 HCOIL WATER OUTLET
   Branch,44,WSHP COOLING PLANT BRANCH T N2 APARTMENT,SINGLE WATER PLANT LOOP,Plant Demand,AIRLOOP T N2 CCOIL WATER INLET,AIRLOOP T N2 CCOIL WATER OUTLET
   Branch,45,WSHP HEATING PLANT BRANCH T N2 APARTMENT,SINGLE WATER PLANT LOOP,Plant Demand,AIRLOOP T N2 HCOIL WATER INLET,AIRLOOP T N2 HCOIL WATER OUTLET
   Branch,46,WSHP COOLING PLANT BRANCH T S1 APARTMENT,SINGLE WATER PLANT LOOP,Plant Demand,AIRLOOP T S1 CCOIL WATER INLET,AIRLOOP T S1 CCOIL WATER OUTLET
   Branch,47,WSHP HEATING PLANT BRANCH T S1 APARTMENT,SINGLE WATER PLANT LOOP,Plant Demand,AIRLOOP T S1 HCOIL WATER INLET,AIRLOOP T S1 HCOIL WATER OUTLET
   Branch,48,WSHP COOLING PLANT BRANCH T S2 APARTMENT,SINGLE WATER PLANT LOOP,Plant Demand,AIRLOOP T S2 CCOIL WATER INLET,AIRLOOP T S2 CCOIL WATER OUTLET
   Branch,49,WSHP HEATING PLANT BRANCH T S2 APARTMENT,SINGLE WATER PLANT LOOP,Plant Demand,AIRLOOP T S2 HCOIL WATER INLET,AIRLOOP T S2 HCOIL WATER OUTLET
   Branch,50,PLANT DEMAND BYPASS BRANCH,SINGLE WATER PLANT LOOP,Plant Demand,COND DEMAND BYPASS INLET NODE,COND DEMAND BYPASS OUTLET NODE
   Branch,51,PLANT DEMAND OUTLET BRANCH,SINGLE WATER PLANT LOOP,Plant Demand,PLANT DEMAND EXIT PIPE INLET NODE,PLANT DEMAND OUTLET NODE
 Branch List,3,AIRLOOP G SW AIR LOOP BRANCHES,AIRLOOP G SW,Air,1
   Branch,1,AIRLOOP G SW AIR LOOP MAIN BRANCH,AIRLOOP G SW,Air,AIRLOOP G SW SUPPLY EQUIPMENT INLET NODE,AIRLOOP G SW SUPPLY EQUIPMENT OUTLET NODE
 Branch List,4,AIRLOOP G NW AIR LOOP BRANCHES,AIRLOOP G NW,Air,1
   Branch,1,AIRLOOP G NW AIR LOOP MAIN BRANCH,AIRLOOP G NW,Air,AIRLOOP G NW SUPPLY EQUIPMENT INLET NODE,AIRLOOP G NW SUPPLY EQUIPMENT OUTLET NODE
 Branch List,5,AIRLOOP OFFICE AIR LOOP BRANCHES,AIRLOOP OFFICE,Air,1
   Branch,1,AIRLOOP OFFICE AIR LOOP MAIN BRANCH,AIRLOOP OFFICE,Air,AIRLOOP OFFICE SUPPLY EQUIPMENT INLET NODE,AIRLOOP OFFICE SUPPLY EQUIPMENT OUTLET NODE
 Branch List,6,AIRLOOP G NE AIR LOOP BRANCHES,AIRLOOP G NE,Air,1
   Branch,1,AIRLOOP G NE AIR LOOP MAIN BRANCH,AIRLOOP G NE,Air,AIRLOOP G NE SUPPLY EQUIPMENT INLET NODE,AIRLOOP G NE SUPPLY EQUIPMENT OUTLET NODE
 Branch List,7,AIRLOOP G N1 AIR LOOP BRANCHES,AIRLOOP G N1,Air,1
   Branch,1,AIRLOOP G N1 AIR LOOP MAIN BRANCH,AIRLOOP G N1,Air,AIRLOOP G N1 SUPPLY EQUIPMENT INLET NODE,AIRLOOP G N1 SUPPLY EQUIPMENT OUTLET NODE
 Branch List,8,AIRLOOP G N2 AIR LOOP BRANCHES,AIRLOOP G N2,Air,1
   Branch,1,AIRLOOP G N2 AIR LOOP MAIN BRANCH,AIRLOOP G N2,Air,AIRLOOP G N2 SUPPLY EQUIPMENT INLET NODE,AIRLOOP G N2 SUPPLY EQUIPMENT OUTLET NODE
 Branch List,9,AIRLOOP G S1 AIR LOOP BRANCHES,AIRLOOP G S1,Air,1
   Branch,1,AIRLOOP G S1 AIR LOOP MAIN BRANCH,AIRLOOP G S1,Air,AIRLOOP G S1 SUPPLY EQUIPMENT INLET NODE,AIRLOOP G S1 SUPPLY EQUIPMENT OUTLET NODE
 Branch List,10,AIRLOOP G S2 AIR LOOP BRANCHES,AIRLOOP G S2,Air,1
   Branch,1,AIRLOOP G S2 AIR LOOP MAIN BRANCH,AIRLOOP G S2,Air,AIRLOOP G S2 SUPPLY EQUIPMENT INLET NODE,AIRLOOP G S2 SUPPLY EQUIPMENT OUTLET NODE
 Branch List,11,AIRLOOP M SW AIR LOOP BRANCHES,AIRLOOP M SW,Air,1
   Branch,1,AIRLOOP M SW AIR LOOP MAIN BRANCH,AIRLOOP M SW,Air,AIRLOOP M SW SUPPLY EQUIPMENT INLET NODE,AIRLOOP M SW SUPPLY EQUIPMENT OUTLET NODE
 Branch List,12,AIRLOOP M NW AIR LOOP BRANCHES,AIRLOOP M NW,Air,1
   Branch,1,AIRLOOP M NW AIR LOOP MAIN BRANCH,AIRLOOP M NW,Air,AIRLOOP M NW SUPPLY EQUIPMENT INLET NODE,AIRLOOP M NW SUPPLY EQUIPMENT OUTLET NODE
 Branch List,13,AIRLOOP M SE AIR LOOP BRANCHES,AIRLOOP M SE,Air,1
   Branch,1,AIRLOOP M SE AIR LOOP MAIN BRANCH,AIRLOOP M SE,Air,AIRLOOP M SE SUPPLY EQUIPMENT INLET NODE,AIRLOOP M SE SUPPLY EQUIPMENT OUTLET NODE
 Branch List,14,AIRLOOP M NE AIR LOOP BRANCHES,AIRLOOP M NE,Air,1
   Branch,1,AIRLOOP M NE AIR LOOP MAIN BRANCH,AIRLOOP M NE,Air,AIRLOOP M NE SUPPLY EQUIPMENT INLET NODE,AIRLOOP M NE SUPPLY EQUIPMENT OUTLET NODE
 Branch List,15,AIRLOOP M N1 AIR LOOP BRANCHES,AIRLOOP M N1,Air,1
   Branch,1,AIRLOOP M N1 AIR LOOP MAIN BRANCH,AIRLOOP M N1,Air,AIRLOOP M N1 SUPPLY EQUIPMENT INLET NODE,AIRLOOP M N1 SUPPLY EQUIPMENT OUTLET NODE
 Branch List,16,AIRLOOP M N2 AIR LOOP BRANCHES,AIRLOOP M N2,Air,1
   Branch,1,AIRLOOP M N2 AIR LOOP MAIN BRANCH,AIRLOOP M N2,Air,AIRLOOP M N2 SUPPLY EQUIPMENT INLET NODE,AIRLOOP M N2 SUPPLY EQUIPMENT OUTLET NODE
 Branch List,17,AIRLOOP M S1 AIR LOOP BRANCHES,AIRLOOP M S1,Air,1
   Branch,1,AIRLOOP M S1 AIR LOOP MAIN BRANCH,AIRLOOP M S1,Air,AIRLOOP M S1 SUPPLY EQUIPMENT INLET NODE,AIRLOOP M S1 SUPPLY EQUIPMENT OUTLET NODE
 Branch List,18,AIRLOOP M S2 AIR LOOP BRANCHES,AIRLOOP M S2,Air,1
   Branch,1,AIRLOOP M S2 AIR LOOP MAIN BRANCH,AIRLOOP M S2,Air,AIRLOOP M S2 SUPPLY EQUIPMENT INLET NODE,AIRLOOP M S2 SUPPLY EQUIPMENT OUTLET NODE
 Branch List,19,AIRLOOP T SW AIR LOOP BRANCHES,AIRLOOP T SW,Air,1
   Branch,1,AIRLOOP T SW AIR LOOP MAIN BRANCH,AIRLOOP T SW,Air,AIRLOOP T SW SUPPLY EQUIPMENT INLET NODE,AIRLOOP T SW SUPPLY EQUIPMENT OUTLET NODE
 Branch List,20,AIRLOOP T NW AIR LOOP BRANCHES,AIRLOOP T NW,Air,1
   Branch,1,AIRLOOP T NW AIR LOOP MAIN BRANCH,AIRLOOP T NW,Air,AIRLOOP T NW SUPPLY EQUIPMENT INLET NODE,AIRLOOP T NW SUPPLY EQUIPMENT OUTLET NODE
 Branch List,21,AIRLOOP T SE AIR LOOP BRANCHES,AIRLOOP T SE,Air,1
   Branch,1,AIRLOOP T SE AIR LOOP MAIN BRANCH,AIRLOOP T SE,Air,AIRLOOP T SE SUPPLY EQUIPMENT INLET NODE,AIRLOOP T SE SUPPLY EQUIPMENT OUTLET NODE
 Branch List,22,AIRLOOP T NE AIR LOOP BRANCHES,AIRLOOP T NE,Air,1
   Branch,1,AIRLOOP T NE AIR LOOP MAIN BRANCH,AIRLOOP T NE,Air,AIRLOOP T NE SUPPLY EQUIPMENT INLET NODE,AIRLOOP T NE SUPPLY EQUIPMENT OUTLET NODE
 Branch List,23,AIRLOOP T N1 AIR LOOP BRANCHES,AIRLOOP T N1,Air,1
   Branch,1,AIRLOOP T N1 AIR LOOP MAIN BRANCH,AIRLOOP T N1,Air,AIRLOOP T N1 SUPPLY EQUIPMENT INLET NODE,AIRLOOP T N1 SUPPLY EQUIPMENT OUTLET NODE
 Branch List,24,AIRLOOP T N2 AIR LOOP BRANCHES,AIRLOOP T N2,Air,1
   Branch,1,AIRLOOP T N2 AIR LOOP MAIN BRANCH,AIRLOOP T N2,Air,AIRLOOP T N2 SUPPLY EQUIPMENT INLET NODE,AIRLOOP T N2 SUPPLY EQUIPMENT OUTLET NODE
 Branch List,25,AIRLOOP T S1 AIR LOOP BRANCHES,AIRLOOP T S1,Air,1
   Branch,1,AIRLOOP T S1 AIR LOOP MAIN BRANCH,AIRLOOP T S1,Air,AIRLOOP T S1 SUPPLY EQUIPMENT INLET NODE,AIRLOOP T S1 SUPPLY EQUIPMENT OUTLET NODE
 Branch List,26,AIRLOOP T S2 AIR LOOP BRANCHES,AIRLOOP T S2,Air,1
   Branch,1,AIRLOOP T S2 AIR LOOP MAIN BRANCH,AIRLOOP T S2,Air,AIRLOOP T S2 SUPPLY EQUIPMENT INLET NODE,AIRLOOP T S2 SUPPLY EQUIPMENT OUTLET NODE
 Branch List,27,SWHSYS1 SUPPLY BRANCHES,SWHSYS1,Plant Supply,4
   Branch,1,SWHSYS1 SUPPLY INLET BRANCH,SWHSYS1,Plant Supply,SWHSYS1 SUPPLY INLET NODE,SWHSYS1 PUMP-WATER HEATERNODEVIACONNECTOR
   Branch,2,SWHSYS1 SUPPLY EQUIPMENT BRANCH,SWHSYS1,Plant Supply,SWHSYS1 PUMP-WATER HEATERNODE,SWHSYS1 SUPPLY EQUIPMENT OUTLET NODE
   Branch,3,SWHSYS1 SUPPLY EQUIPMENT BYPASS BRANCH,SWHSYS1,Plant Supply,SWHSYS1 SUPPLY EQUIP BYPASS INLET NODE,SWHSYS1 SUPPLY EQUIP BYPASS OUTLET NODE
   Branch,4,SWHSYS1 SUPPLY OUTLET BRANCH,SWHSYS1,Plant Supply,SWHSYS1 SUPPLY MIXER-SWHSYS1 SUPPLY OUTLET PIPE,SWHSYS1 SUPPLY OUTLET NODE
 Branch List,28,SWHSYS1 DEMAND BRANCHES,SWHSYS1,Plant Demand,26
   Branch,1,SWHSYS1 DEMAND INLET BRANCH,SWHSYS1,Plant Demand,SWHSYS1 DEMAND INLET NODE,SWHSYS1 DEMAND INLET PIPE-SWHSYS1 DEMAND MIXER
   Branch,2,SWH DEMAND LOAD BRANCH G SW APARTMENT SUB CAT,SWHSYS1,Plant Demand,G SW APARTMENT SUB CAT WATER INLET NODE,G SW APARTMENT SUB CAT WATER OUTLET NODE
   Branch,3,SWH DEMAND LOAD BRANCH G NW APARTMENT SUB CAT,SWHSYS1,Plant Demand,G NW APARTMENT SUB CAT WATER INLET NODE,G NW APARTMENT SUB CAT WATER OUTLET NODE
   Branch,4,SWH DEMAND LOAD BRANCH G NE APARTMENT SUB CAT,SWHSYS1,Plant Demand,G NE APARTMENT SUB CAT WATER INLET NODE,G NE APARTMENT SUB CAT WATER OUTLET NODE
   Branch,5,SWH DEMAND LOAD BRANCH G N1 APARTMENT SUB CAT,SWHSYS1,Plant Demand,G N1 APARTMENT SUB CAT WATER INLET NODE,G N1 APARTMENT SUB CAT WATER OUTLET NODE
   Branch,6,SWH DEMAND LOAD BRANCH G N2 APARTMENT SUB CAT,SWHSYS1,Plant Demand,G N2 APARTMENT SUB CAT WATER INLET NODE,G N2 APARTMENT SUB CAT WATER OUTLET NODE
   Branch,7,SWH DEMAND LOAD BRANCH G S1 APARTMENT SUB CAT,SWHSYS1,Plant Demand,G S1 APARTMENT SUB CAT WATER INLET NODE,G S1 APARTMENT SUB CAT WATER OUTLET NODE
   Branch,8,SWH DEMAND LOAD BRANCH G S2 APARTMENT SUB CAT,SWHSYS1,Plant Demand,G S2 APARTMENT SUB CAT WATER INLET NODE,G S2 APARTMENT SUB CAT WATER OUTLET NODE
   Branch,9,SWH DEMAND LOAD BRANCH M SW APARTMENT SUB CAT,SWHSYS1,Plant Demand,M SW APARTMENT SUB CAT WATER INLET NODE,M SW APARTMENT SUB CAT WATER OUTLET NODE
   Branch,10,SWH DEMAND LOAD BRANCH M NW APARTMENT SUB CAT,SWHSYS1,Plant Demand,M NW APARTMENT SUB CAT WATER INLET NODE,M NW APARTMENT SUB CAT WATER OUTLET NODE
   Branch,11,SWH DEMAND LOAD BRANCH M SE APARTMENT SUB CAT,SWHSYS1,Plant Demand,M SE APARTMENT SUB CAT WATER INLET NODE,M SE APARTMENT SUB CAT WATER OUTLET NODE
   Branch,12,SWH DEMAND LOAD BRANCH M NE APARTMENT SUB CAT,SWHSYS1,Plant Demand,M NE APARTMENT SUB CAT WATER INLET NODE,M NE APARTMENT SUB CAT WATER OUTLET NODE
   Branch,13,SWH DEMAND LOAD BRANCH M N1 APARTMENT SUB CAT,SWHSYS1,Plant Demand,M N1 APARTMENT SUB CAT WATER INLET NODE,M N1 APARTMENT SUB CAT WATER OUTLET NODE
   Branch,14,SWH DEMAND LOAD BRANCH M N2 APARTMENT SUB CAT,SWHSYS1,Plant Demand,M N2 APARTMENT SUB CAT WATER INLET NODE,M N2 APARTMENT SUB CAT WATER OUTLET NODE
   Branch,15,SWH DEMAND LOAD BRANCH M S1 APARTMENT SUB CAT,SWHSYS1,Plant Demand,M S1 APARTMENT SUB CAT WATER INLET NODE,M S1 APARTMENT SUB CAT WATER OUTLET NODE
   Branch,16,SWH DEMAND LOAD BRANCH M S2 APARTMENT SUB CAT,SWHSYS1,Plant Demand,M S2 APARTMENT SUB CAT WATER INLET NODE,M S2 APARTMENT SUB CAT WATER OUTLET NODE
   Branch,17,SWH DEMAND LOAD BRANCH T SW APARTMENT SUB CAT,SWHSYS1,Plant Demand,T SW APARTMENT SUB CAT WATER INLET NODE,T SW APARTMENT SUB CAT WATER OUTLET NODE
   Branch,18,SWH DEMAND LOAD BRANCH T NW APARTMENT SUB CAT,SWHSYS1,Plant Demand,T NW APARTMENT SUB CAT WATER INLET NODE,T NW APARTMENT SUB CAT WATER OUTLET NODE
   Branch,19,SWH DEMAND LOAD BRANCH T SE APARTMENT SUB CAT,SWHSYS1,Plant Demand,T SE APARTMENT SUB CAT WATER INLET NODE,T SE APARTMENT SUB CAT WATER OUTLET NODE
   Branch,20,SWH DEMAND LOAD BRANCH T NE APARTMENT SUB CAT,SWHSYS1,Plant Demand,T NE APARTMENT SUB CAT WATER INLET NODE,T NE APARTMENT SUB CAT WATER OUTLET NODE
   Branch,21,SWH DEMAND LOAD BRANCH T N1 APARTMENT SUB CAT,SWHSYS1,Plant Demand,T N1 APARTMENT SUB CAT WATER INLET NODE,T N1 APARTMENT SUB CAT WATER OUTLET NODE
   Branch,22,SWH DEMAND LOAD BRANCH T N2 APARTMENT SUB CAT,SWHSYS1,Plant Demand,T N2 APARTMENT SUB CAT WATER INLET NODE,T N2 APARTMENT SUB CAT WATER OUTLET NODE
   Branch,23,SWH DEMAND LOAD BRANCH T S1 APARTMENT SUB CAT,SWHSYS1,Plant Demand,T S1 APARTMENT SUB CAT WATER INLET NODE,T S1 APARTMENT SUB CAT WATER OUTLET NODE
   Branch,24,SWH DEMAND LOAD BRANCH T S2 APARTMENT SUB CAT,SWHSYS1,Plant Demand,T S2 APARTMENT SUB CAT WATER INLET NODE,T S2 APARTMENT SUB CAT WATER OUTLET NODE
   Branch,25,SWHSYS1 DEMAND BYPASS BRANCH,SWHSYS1,Plant Demand,SWHSYS1 DEMAND BYPASS PIPE INLET NODE,SWHSYS1 DEMAND BYPASS PIPE OUTLET NODE
   Branch,26,SWHSYS1 DEMAND OUTLET BRANCH,SWHSYS1,Plant Demand,SWHSYS1 DEMAND MIXER-SWHSYS1 DEMAND OUTLET PIPE,SWHSYS1 DEMAND OUTLET NODE
! ===============================================================
! <#Supply Air Paths>,<Number of Supply Air Paths>
 #Supply Air Paths,24
! <Supply Air Path>,<Supply Air Path Count>,<Supply Air Path Name>,<AirLoopHVAC Name>
! <#Components on Supply Air Path>,<Number of Components>
! <Supply Air Path Component>,<Component Count>,<Component Type>,<Component Name>,<AirLoopHVAC Name>
! <#Outlet Nodes on Supply Air Path Component>,<Number of Nodes>
! <Supply Air Path Component Nodes>,<Node Count>,<Component Type>,<Component Name>,<Inlet Node Name>,<Outlet Node Name>,<AirLoopHVAC Name>
 Supply Air Path,1,AIRLOOP G SW,AIRLOOP G SW
   #Components on Supply Air Path,1
   Supply Air Path Component,1,AIRLOOPHVAC:ZONESPLITTER,AIRLOOP G SW SUPPLY AIR SPLITTER,AIRLOOP G SW
     #Outlet Nodes on Supply Air Path Component,1
     Supply Air Path Component Nodes,1,AIRLOOPHVAC:ZONESPLITTER,AIRLOOP G SW SUPPLY AIR SPLITTER,AIRLOOP G SW ZONE EQUIPMENT INLET NODE,G SW APARTMENT ADU INLET NODE,AIRLOOP G SW
! <#Nodes on Supply Air Path>,<Number of Nodes>
! <Supply Air Path Node>,<Node Type>,<Node Count>,<Node Name>,<AirLoopHVAC Name>
#Nodes on Supply Air Path,2
   Supply Air Path Node,Inlet Node,1,AIRLOOP G SW ZONE EQUIPMENT INLET NODE,AIRLOOP G SW
   Supply Air Path Node,Outlet Node,2,G SW APARTMENT ADU INLET NODE,AIRLOOP G SW
 Supply Air Path,2,AIRLOOP G NW,AIRLOOP G NW
   #Components on Supply Air Path,1
   Supply Air Path Component,1,AIRLOOPHVAC:ZONESPLITTER,AIRLOOP G NW SUPPLY AIR SPLITTER,AIRLOOP G NW
     #Outlet Nodes on Supply Air Path Component,1
     Supply Air Path Component Nodes,1,AIRLOOPHVAC:ZONESPLITTER,AIRLOOP G NW SUPPLY AIR SPLITTER,AIRLOOP G NW ZONE EQUIPMENT INLET NODE,G NW APARTMENT ADU INLET NODE,AIRLOOP G NW
! <#Nodes on Supply Air Path>,<Number of Nodes>
! <Supply Air Path Node>,<Node Type>,<Node Count>,<Node Name>,<AirLoopHVAC Name>
#Nodes on Supply Air Path,2
   Supply Air Path Node,Inlet Node,1,AIRLOOP G NW ZONE EQUIPMENT INLET NODE,AIRLOOP G NW
   Supply Air Path Node,Outlet Node,2,G NW APARTMENT ADU INLET NODE,AIRLOOP G NW
 Supply Air Path,3,AIRLOOP OFFICE,AIRLOOP OFFICE
   #Components on Supply Air Path,1
   Supply Air Path Component,1,AIRLOOPHVAC:ZONESPLITTER,AIRLOOP OFFICE SUPPLY AIR SPLITTER,AIRLOOP OFFICE
     #Outlet Nodes on Supply Air Path Component,1
     Supply Air Path Component Nodes,1,AIRLOOPHVAC:ZONESPLITTER,AIRLOOP OFFICE SUPPLY AIR SPLITTER,AIRLOOP OFFICE ZONE EQUIPMENT INLET NODE,OFFICE ADU INLET NODE,AIRLOOP OFFICE
! <#Nodes on Supply Air Path>,<Number of Nodes>
! <Supply Air Path Node>,<Node Type>,<Node Count>,<Node Name>,<AirLoopHVAC Name>
#Nodes on Supply Air Path,2
   Supply Air Path Node,Inlet Node,1,AIRLOOP OFFICE ZONE EQUIPMENT INLET NODE,AIRLOOP OFFICE
   Supply Air Path Node,Outlet Node,2,OFFICE ADU INLET NODE,AIRLOOP OFFICE
 Supply Air Path,4,AIRLOOP G NE,AIRLOOP G NE
   #Components on Supply Air Path,1
   Supply Air Path Component,1,AIRLOOPHVAC:ZONESPLITTER,AIRLOOP G NE SUPPLY AIR SPLITTER,AIRLOOP G NE
     #Outlet Nodes on Supply Air Path Component,1
     Supply Air Path Component Nodes,1,AIRLOOPHVAC:ZONESPLITTER,AIRLOOP G NE SUPPLY AIR SPLITTER,AIRLOOP G NE ZONE EQUIPMENT INLET NODE,G NE APARTMENT ADU INLET NODE,AIRLOOP G NE
! <#Nodes on Supply Air Path>,<Number of Nodes>
! <Supply Air Path Node>,<Node Type>,<Node Count>,<Node Name>,<AirLoopHVAC Name>
#Nodes on Supply Air Path,2
   Supply Air Path Node,Inlet Node,1,AIRLOOP G NE ZONE EQUIPMENT INLET NODE,AIRLOOP G NE
   Supply Air Path Node,Outlet Node,2,G NE APARTMENT ADU INLET NODE,AIRLOOP G NE
 Supply Air Path,5,AIRLOOP G N1,AIRLOOP G N1
   #Components on Supply Air Path,1
   Supply Air Path Component,1,AIRLOOPHVAC:ZONESPLITTER,AIRLOOP G N1 SUPPLY AIR SPLITTER,AIRLOOP G N1
     #Outlet Nodes on Supply Air Path Component,1
     Supply Air Path Component Nodes,1,AIRLOOPHVAC:ZONESPLITTER,AIRLOOP G N1 SUPPLY AIR SPLITTER,AIRLOOP G N1 ZONE EQUIPMENT INLET NODE,G N1 APARTMENT ADU INLET NODE,AIRLOOP G N1
! <#Nodes on Supply Air Path>,<Number of Nodes>
! <Supply Air Path Node>,<Node Type>,<Node Count>,<Node Name>,<AirLoopHVAC Name>
#Nodes on Supply Air Path,2
   Supply Air Path Node,Inlet Node,1,AIRLOOP G N1 ZONE EQUIPMENT INLET NODE,AIRLOOP G N1
   Supply Air Path Node,Outlet Node,2,G N1 APARTMENT ADU INLET NODE,AIRLOOP G N1
 Supply Air Path,6,AIRLOOP G N2,AIRLOOP G N2
   #Components on Supply Air Path,1
   Supply Air Path Component,1,AIRLOOPHVAC:ZONESPLITTER,AIRLOOP G N2 SUPPLY AIR SPLITTER,AIRLOOP G N2
     #Outlet Nodes on Supply Air Path Component,1
     Supply Air Path Component Nodes,1,AIRLOOPHVAC:ZONESPLITTER,AIRLOOP G N2 SUPPLY AIR SPLITTER,AIRLOOP G N2 ZONE EQUIPMENT INLET NODE,G N2 APARTMENT ADU INLET NODE,AIRLOOP G N2
! <#Nodes on Supply Air Path>,<Number of Nodes>
! <Supply Air Path Node>,<Node Type>,<Node Count>,<Node Name>,<AirLoopHVAC Name>
#Nodes on Supply Air Path,2
   Supply Air Path Node,Inlet Node,1,AIRLOOP G N2 ZONE EQUIPMENT INLET NODE,AIRLOOP G N2
   Supply Air Path Node,Outlet Node,2,G N2 APARTMENT ADU INLET NODE,AIRLOOP G N2
 Supply Air Path,7,AIRLOOP G S1,AIRLOOP G S1
   #Components on Supply Air Path,1
   Supply Air Path Component,1,AIRLOOPHVAC:ZONESPLITTER,AIRLOOP G S1 SUPPLY AIR SPLITTER,AIRLOOP G S1
     #Outlet Nodes on Supply Air Path Component,1
     Supply Air Path Component Nodes,1,AIRLOOPHVAC:ZONESPLITTER,AIRLOOP G S1 SUPPLY AIR SPLITTER,AIRLOOP G S1 ZONE EQUIPMENT INLET NODE,G S1 APARTMENT ADU INLET NODE,AIRLOOP G S1
! <#Nodes on Supply Air Path>,<Number of Nodes>
! <Supply Air Path Node>,<Node Type>,<Node Count>,<Node Name>,<AirLoopHVAC Name>
#Nodes on Supply Air Path,2
   Supply Air Path Node,Inlet Node,1,AIRLOOP G S1 ZONE EQUIPMENT INLET NODE,AIRLOOP G S1
   Supply Air Path Node,Outlet Node,2,G S1 APARTMENT ADU INLET NODE,AIRLOOP G S1
 Supply Air Path,8,AIRLOOP G S2,AIRLOOP G S2
   #Components on Supply Air Path,1
   Supply Air Path Component,1,AIRLOOPHVAC:ZONESPLITTER,AIRLOOP G S2 SUPPLY AIR SPLITTER,AIRLOOP G S2
     #Outlet Nodes on Supply Air Path Component,1
     Supply Air Path Component Nodes,1,AIRLOOPHVAC:ZONESPLITTER,AIRLOOP G S2 SUPPLY AIR SPLITTER,AIRLOOP G S2 ZONE EQUIPMENT INLET NODE,G S2 APARTMENT ADU INLET NODE,AIRLOOP G S2
! <#Nodes on Supply Air Path>,<Number of Nodes>
! <Supply Air Path Node>,<Node Type>,<Node Count>,<Node Name>,<AirLoopHVAC Name>
#Nodes on Supply Air Path,2
   Supply Air Path Node,Inlet Node,1,AIRLOOP G S2 ZONE EQUIPMENT INLET NODE,AIRLOOP G S2
   Supply Air Path Node,Outlet Node,2,G S2 APARTMENT ADU INLET NODE,AIRLOOP G S2
 Supply Air Path,9,AIRLOOP M SW,AIRLOOP M SW
   #Components on Supply Air Path,1
   Supply Air Path Component,1,AIRLOOPHVAC:ZONESPLITTER,AIRLOOP M SW SUPPLY AIR SPLITTER,AIRLOOP M SW
     #Outlet Nodes on Supply Air Path Component,1
     Supply Air Path Component Nodes,1,AIRLOOPHVAC:ZONESPLITTER,AIRLOOP M SW SUPPLY AIR SPLITTER,AIRLOOP M SW ZONE EQUIPMENT INLET NODE,M SW APARTMENT ADU INLET NODE,AIRLOOP M SW
! <#Nodes on Supply Air Path>,<Number of Nodes>
! <Supply Air Path Node>,<Node Type>,<Node Count>,<Node Name>,<AirLoopHVAC Name>
#Nodes on Supply Air Path,2
   Supply Air Path Node,Inlet Node,1,AIRLOOP M SW ZONE EQUIPMENT INLET NODE,AIRLOOP M SW
   Supply Air Path Node,Outlet Node,2,M SW APARTMENT ADU INLET NODE,AIRLOOP M SW
 Supply Air Path,10,AIRLOOP M NW,AIRLOOP M NW
   #Components on Supply Air Path,1
   Supply Air Path Component,1,AIRLOOPHVAC:ZONESPLITTER,AIRLOOP M NW SUPPLY AIR SPLITTER,AIRLOOP M NW
     #Outlet Nodes on Supply Air Path Component,1
     Supply Air Path Component Nodes,1,AIRLOOPHVAC:ZONESPLITTER,AIRLOOP M NW SUPPLY AIR SPLITTER,AIRLOOP M NW ZONE EQUIPMENT INLET NODE,M NW APARTMENT ADU INLET NODE,AIRLOOP M NW
! <#Nodes on Supply Air Path>,<Number of Nodes>
! <Supply Air Path Node>,<Node Type>,<Node Count>,<Node Name>,<AirLoopHVAC Name>
#Nodes on Supply Air Path,2
   Supply Air Path Node,Inlet Node,1,AIRLOOP M NW ZONE EQUIPMENT INLET NODE,AIRLOOP M NW
   Supply Air Path Node,Outlet Node,2,M NW APARTMENT ADU INLET NODE,AIRLOOP M NW
 Supply Air Path,11,AIRLOOP M SE,AIRLOOP M SE
   #Components on Supply Air Path,1
   Supply Air Path Component,1,AIRLOOPHVAC:ZONESPLITTER,AIRLOOP M SE SUPPLY AIR SPLITTER,AIRLOOP M SE
     #Outlet Nodes on Supply Air Path Component,1
     Supply Air Path Component Nodes,1,AIRLOOPHVAC:ZONESPLITTER,AIRLOOP M SE SUPPLY AIR SPLITTER,AIRLOOP M SE ZONE EQUIPMENT INLET NODE,M SE APARTMENT ADU INLET NODE,AIRLOOP M SE
! <#Nodes on Supply Air Path>,<Number of Nodes>
! <Supply Air Path Node>,<Node Type>,<Node Count>,<Node Name>,<AirLoopHVAC Name>
#Nodes on Supply Air Path,2
   Supply Air Path Node,Inlet Node,1,AIRLOOP M SE ZONE EQUIPMENT INLET NODE,AIRLOOP M SE
   Supply Air Path Node,Outlet Node,2,M SE APARTMENT ADU INLET NODE,AIRLOOP M SE
 Supply Air Path,12,AIRLOOP M NE,AIRLOOP M NE
   #Components on Supply Air Path,1
   Supply Air Path Component,1,AIRLOOPHVAC:ZONESPLITTER,AIRLOOP M NE SUPPLY AIR SPLITTER,AIRLOOP M NE
     #Outlet Nodes on Supply Air Path Component,1
     Supply Air Path Component Nodes,1,AIRLOOPHVAC:ZONESPLITTER,AIRLOOP M NE SUPPLY AIR SPLITTER,AIRLOOP M NE ZONE EQUIPMENT INLET NODE,M NE APARTMENT ADU INLET NODE,AIRLOOP M NE
! <#Nodes on Supply Air Path>,<Number of Nodes>
! <Supply Air Path Node>,<Node Type>,<Node Count>,<Node Name>,<AirLoopHVAC Name>
#Nodes on Supply Air Path,2
   Supply Air Path Node,Inlet Node,1,AIRLOOP M NE ZONE EQUIPMENT INLET NODE,AIRLOOP M NE
   Supply Air Path Node,Outlet Node,2,M NE APARTMENT ADU INLET NODE,AIRLOOP M NE
 Supply Air Path,13,AIRLOOP M N1,AIRLOOP M N1
   #Components on Supply Air Path,1
   Supply Air Path Component,1,AIRLOOPHVAC:ZONESPLITTER,AIRLOOP M N1 SUPPLY AIR SPLITTER,AIRLOOP M N1
     #Outlet Nodes on Supply Air Path Component,1
     Supply Air Path Component Nodes,1,AIRLOOPHVAC:ZONESPLITTER,AIRLOOP M N1 SUPPLY AIR SPLITTER,AIRLOOP M N1 ZONE EQUIPMENT INLET NODE,M N1 APARTMENT ADU INLET NODE,AIRLOOP M N1
! <#Nodes on Supply Air Path>,<Number of Nodes>
! <Supply Air Path Node>,<Node Type>,<Node Count>,<Node Name>,<AirLoopHVAC Name>
#Nodes on Supply Air Path,2
   Supply Air Path Node,Inlet Node,1,AIRLOOP M N1 ZONE EQUIPMENT INLET NODE,AIRLOOP M N1
   Supply Air Path Node,Outlet Node,2,M N1 APARTMENT ADU INLET NODE,AIRLOOP M N1
 Supply Air Path,14,AIRLOOP M N2,AIRLOOP M N2
   #Components on Supply Air Path,1
   Supply Air Path Component,1,AIRLOOPHVAC:ZONESPLITTER,AIRLOOP M N2 SUPPLY AIR SPLITTER,AIRLOOP M N2
     #Outlet Nodes on Supply Air Path Component,1
     Supply Air Path Component Nodes,1,AIRLOOPHVAC:ZONESPLITTER,AIRLOOP M N2 SUPPLY AIR SPLITTER,AIRLOOP M N2 ZONE EQUIPMENT INLET NODE,M N2 APARTMENT ADU INLET NODE,AIRLOOP M N2
! <#Nodes on Supply Air Path>,<Number of Nodes>
! <Supply Air Path Node>,<Node Type>,<Node Count>,<Node Name>,<AirLoopHVAC Name>
#Nodes on Supply Air Path,2
   Supply Air Path Node,Inlet Node,1,AIRLOOP M N2 ZONE EQUIPMENT INLET NODE,AIRLOOP M N2
   Supply Air Path Node,Outlet Node,2,M N2 APARTMENT ADU INLET NODE,AIRLOOP M N2
 Supply Air Path,15,AIRLOOP M S1,AIRLOOP M S1
   #Components on Supply Air Path,1
   Supply Air Path Component,1,AIRLOOPHVAC:ZONESPLITTER,AIRLOOP M S1 SUPPLY AIR SPLITTER,AIRLOOP M S1
     #Outlet Nodes on Supply Air Path Component,1
     Supply Air Path Component Nodes,1,AIRLOOPHVAC:ZONESPLITTER,AIRLOOP M S1 SUPPLY AIR SPLITTER,AIRLOOP M S1 ZONE EQUIPMENT INLET NODE,M S1 APARTMENT ADU INLET NODE,AIRLOOP M S1
! <#Nodes on Supply Air Path>,<Number of Nodes>
! <Supply Air Path Node>,<Node Type>,<Node Count>,<Node Name>,<AirLoopHVAC Name>
#Nodes on Supply Air Path,2
   Supply Air Path Node,Inlet Node,1,AIRLOOP M S1 ZONE EQUIPMENT INLET NODE,AIRLOOP M S1
   Supply Air Path Node,Outlet Node,2,M S1 APARTMENT ADU INLET NODE,AIRLOOP M S1
 Supply Air Path,16,AIRLOOP M S2,AIRLOOP M S2
   #Components on Supply Air Path,1
   Supply Air Path Component,1,AIRLOOPHVAC:ZONESPLITTER,AIRLOOP M S2 SUPPLY AIR SPLITTER,AIRLOOP M S2
     #Outlet Nodes on Supply Air Path Component,1
     Supply Air Path Component Nodes,1,AIRLOOPHVAC:ZONESPLITTER,AIRLOOP M S2 SUPPLY AIR SPLITTER,AIRLOOP M S2 ZONE EQUIPMENT INLET NODE,M S2 APARTMENT ADU INLET NODE,AIRLOOP M S2
! <#Nodes on Supply Air Path>,<Number of Nodes>
! <Supply Air Path Node>,<Node Type>,<Node Count>,<Node Name>,<AirLoopHVAC Name>
#Nodes on Supply Air Path,2
   Supply Air Path Node,Inlet Node,1,AIRLOOP M S2 ZONE EQUIPMENT INLET NODE,AIRLOOP M S2
   Supply Air Path Node,Outlet Node,2,M S2 APARTMENT ADU INLET NODE,AIRLOOP M S2
 Supply Air Path,17,AIRLOOP T SW,AIRLOOP T SW
   #Components on Supply Air Path,1
   Supply Air Path Component,1,AIRLOOPHVAC:ZONESPLITTER,AIRLOOP T SW SUPPLY AIR SPLITTER,AIRLOOP T SW
     #Outlet Nodes on Supply Air Path Component,1
     Supply Air Path Component Nodes,1,AIRLOOPHVAC:ZONESPLITTER,AIRLOOP T SW SUPPLY AIR SPLITTER,AIRLOOP T SW ZONE EQUIPMENT INLET NODE,T SW APARTMENT ADU INLET NODE,AIRLOOP T SW
! <#Nodes on Supply Air Path>,<Number of Nodes>
! <Supply Air Path Node>,<Node Type>,<Node Count>,<Node Name>,<AirLoopHVAC Name>
#Nodes on Supply Air Path,2
   Supply Air Path Node,Inlet Node,1,AIRLOOP T SW ZONE EQUIPMENT INLET NODE,AIRLOOP T SW
   Supply Air Path Node,Outlet Node,2,T SW APARTMENT ADU INLET NODE,AIRLOOP T SW
 Supply Air Path,18,AIRLOOP T NW,AIRLOOP T NW
   #Components on Supply Air Path,1
   Supply Air Path Component,1,AIRLOOPHVAC:ZONESPLITTER,AIRLOOP T NW SUPPLY AIR SPLITTER,AIRLOOP T NW
     #Outlet Nodes on Supply Air Path Component,1
     Supply Air Path Component Nodes,1,AIRLOOPHVAC:ZONESPLITTER,AIRLOOP T NW SUPPLY AIR SPLITTER,AIRLOOP T NW ZONE EQUIPMENT INLET NODE,T NW APARTMENT ADU INLET NODE,AIRLOOP T NW
! <#Nodes on Supply Air Path>,<Number of Nodes>
! <Supply Air Path Node>,<Node Type>,<Node Count>,<Node Name>,<AirLoopHVAC Name>
#Nodes on Supply Air Path,2
   Supply Air Path Node,Inlet Node,1,AIRLOOP T NW ZONE EQUIPMENT INLET NODE,AIRLOOP T NW
   Supply Air Path Node,Outlet Node,2,T NW APARTMENT ADU INLET NODE,AIRLOOP T NW
 Supply Air Path,19,AIRLOOP T SE,AIRLOOP T SE
   #Components on Supply Air Path,1
   Supply Air Path Component,1,AIRLOOPHVAC:ZONESPLITTER,AIRLOOP T SE SUPPLY AIR SPLITTER,AIRLOOP T SE
     #Outlet Nodes on Supply Air Path Component,1
     Supply Air Path Component Nodes,1,AIRLOOPHVAC:ZONESPLITTER,AIRLOOP T SE SUPPLY AIR SPLITTER,AIRLOOP T SE ZONE EQUIPMENT INLET NODE,T SE APARTMENT ADU INLET NODE,AIRLOOP T SE
! <#Nodes on Supply Air Path>,<Number of Nodes>
! <Supply Air Path Node>,<Node Type>,<Node Count>,<Node Name>,<AirLoopHVAC Name>
#Nodes on Supply Air Path,2
   Supply Air Path Node,Inlet Node,1,AIRLOOP T SE ZONE EQUIPMENT INLET NODE,AIRLOOP T SE
   Supply Air Path Node,Outlet Node,2,T SE APARTMENT ADU INLET NODE,AIRLOOP T SE
 Supply Air Path,20,AIRLOOP T NE,AIRLOOP T NE
   #Components on Supply Air Path,1
   Supply Air Path Component,1,AIRLOOPHVAC:ZONESPLITTER,AIRLOOP T NE SUPPLY AIR SPLITTER,AIRLOOP T NE
     #Outlet Nodes on Supply Air Path Component,1
     Supply Air Path Component Nodes,1,AIRLOOPHVAC:ZONESPLITTER,AIRLOOP T NE SUPPLY AIR SPLITTER,AIRLOOP T NE ZONE EQUIPMENT INLET NODE,T NE APARTMENT ADU INLET NODE,AIRLOOP T NE
! <#Nodes on Supply Air Path>,<Number of Nodes>
! <Supply Air Path Node>,<Node Type>,<Node Count>,<Node Name>,<AirLoopHVAC Name>
#Nodes on Supply Air Path,2
   Supply Air Path Node,Inlet Node,1,AIRLOOP T NE ZONE EQUIPMENT INLET NODE,AIRLOOP T NE
   Supply Air Path Node,Outlet Node,2,T NE APARTMENT ADU INLET NODE,AIRLOOP T NE
 Supply Air Path,21,AIRLOOP T N1,AIRLOOP T N1
   #Components on Supply Air Path,1
   Supply Air Path Component,1,AIRLOOPHVAC:ZONESPLITTER,AIRLOOP T N1 SUPPLY AIR SPLITTER,AIRLOOP T N1
     #Outlet Nodes on Supply Air Path Component,1
     Supply Air Path Component Nodes,1,AIRLOOPHVAC:ZONESPLITTER,AIRLOOP T N1 SUPPLY AIR SPLITTER,AIRLOOP T N1 ZONE EQUIPMENT INLET NODE,T N1 APARTMENT ADU INLET NODE,AIRLOOP T N1
! <#Nodes on Supply Air Path>,<Number of Nodes>
! <Supply Air Path Node>,<Node Type>,<Node Count>,<Node Name>,<AirLoopHVAC Name>
#Nodes on Supply Air Path,2
   Supply Air Path Node,Inlet Node,1,AIRLOOP T N1 ZONE EQUIPMENT INLET NODE,AIRLOOP T N1
   Supply Air Path Node,Outlet Node,2,T N1 APARTMENT ADU INLET NODE,AIRLOOP T N1
 Supply Air Path,22,AIRLOOP T N2,AIRLOOP T N2
   #Components on Supply Air Path,1
   Supply Air Path Component,1,AIRLOOPHVAC:ZONESPLITTER,AIRLOOP T N2 SUPPLY AIR SPLITTER,AIRLOOP T N2
     #Outlet Nodes on Supply Air Path Component,1
     Supply Air Path Component Nodes,1,AIRLOOPHVAC:ZONESPLITTER,AIRLOOP T N2 SUPPLY AIR SPLITTER,AIRLOOP T N2 ZONE EQUIPMENT INLET NODE,T N2 APARTMENT ADU INLET NODE,AIRLOOP T N2
! <#Nodes on Supply Air Path>,<Number of Nodes>
! <Supply Air Path Node>,<Node Type>,<Node Count>,<Node Name>,<AirLoopHVAC Name>
#Nodes on Supply Air Path,2
   Supply Air Path Node,Inlet Node,1,AIRLOOP T N2 ZONE EQUIPMENT INLET NODE,AIRLOOP T N2
   Supply Air Path Node,Outlet Node,2,T N2 APARTMENT ADU INLET NODE,AIRLOOP T N2
 Supply Air Path,23,AIRLOOP T S1,AIRLOOP T S1
   #Components on Supply Air Path,1
   Supply Air Path Component,1,AIRLOOPHVAC:ZONESPLITTER,AIRLOOP T S1 SUPPLY AIR SPLITTER,AIRLOOP T S1
     #Outlet Nodes on Supply Air Path Component,1
     Supply Air Path Component Nodes,1,AIRLOOPHVAC:ZONESPLITTER,AIRLOOP T S1 SUPPLY AIR SPLITTER,AIRLOOP T S1 ZONE EQUIPMENT INLET NODE,T S1 APARTMENT ADU INLET NODE,AIRLOOP T S1
! <#Nodes on Supply Air Path>,<Number of Nodes>
! <Supply Air Path Node>,<Node Type>,<Node Count>,<Node Name>,<AirLoopHVAC Name>
#Nodes on Supply Air Path,2
   Supply Air Path Node,Inlet Node,1,AIRLOOP T S1 ZONE EQUIPMENT INLET NODE,AIRLOOP T S1
   Supply Air Path Node,Outlet Node,2,T S1 APARTMENT ADU INLET NODE,AIRLOOP T S1
 Supply Air Path,24,AIRLOOP T S2,AIRLOOP T S2
   #Components on Supply Air Path,1
   Supply Air Path Component,1,AIRLOOPHVAC:ZONESPLITTER,AIRLOOP T S2 SUPPLY AIR SPLITTER,AIRLOOP T S2
     #Outlet Nodes on Supply Air Path Component,1
     Supply Air Path Component Nodes,1,AIRLOOPHVAC:ZONESPLITTER,AIRLOOP T S2 SUPPLY AIR SPLITTER,AIRLOOP T S2 ZONE EQUIPMENT INLET NODE,T S2 APARTMENT ADU INLET NODE,AIRLOOP T S2
! <#Nodes on Supply Air Path>,<Number of Nodes>
! <Supply Air Path Node>,<Node Type>,<Node Count>,<Node Name>,<AirLoopHVAC Name>
#Nodes on Supply Air Path,2
   Supply Air Path Node,Inlet Node,1,AIRLOOP T S2 ZONE EQUIPMENT INLET NODE,AIRLOOP T S2
   Supply Air Path Node,Outlet Node,2,T S2 APARTMENT ADU INLET NODE,AIRLOOP T S2
! ===============================================================
! <#Return Air Paths>,<Number of Return Air Paths>
 #Return Air Paths,24
! <Return Air Path>,<Return Air Path Count>,<Return Air Path Name>,<AirLoopHVAC Name>
! <#Components on Return Air Path>,<Number of Components>
! <Return Air Path Component>,<Component Count>,<Component Type>,<Component Name>,<AirLoopHVAC Name>
! <#Inlet Nodes on Return Air Path Component>,<Number of Nodes>
! <Return Air Path Component Nodes>,<Node Count>,<Component Type>,<Component Name>,<Inlet Node Name>,<Outlet Node Name>,<AirLoopHVAC Name>
 Return Air Path,1,AIRLOOP G SW RETURN AIR PATH,AIRLOOP G SW
   #Components on Return Air Path,1
   Return Air Path Component,1,AIRLOOPHVAC:ZONEMIXER,AIRLOOP G SW RETURN AIR MIXER,AIRLOOP G SW
     #Inlet Nodes on Return Air Path Component,1
     Return Air Path Component Nodes,1,AIRLOOPHVAC:ZONEMIXER,AIRLOOP G SW RETURN AIR MIXER,G SW APARTMENT RETURN AIR NODE,AIRLOOP G SW ZONE EQUIPMENT OUTLET NODE,AIRLOOP G SW
! <#Nodes on Return Air Path>,<Number of Nodes>
! <Return Air Path Node>,<Node Type>,<Node Count>,<Node Name>,<AirLoopHVAC Name>
   #Nodes on Return Air Path,2
   Return Air Path Node,Outlet Node,1,AIRLOOP G SW ZONE EQUIPMENT OUTLET NODE,AIRLOOP G SW
   Return Air Path Node,Inlet Node,2,G SW APARTMENT RETURN AIR NODE,AIRLOOP G SW
 Return Air Path,2,AIRLOOP G NW RETURN AIR PATH,AIRLOOP G NW
   #Components on Return Air Path,1
   Return Air Path Component,1,AIRLOOPHVAC:ZONEMIXER,AIRLOOP G NW RETURN AIR MIXER,AIRLOOP G NW
     #Inlet Nodes on Return Air Path Component,1
     Return Air Path Component Nodes,1,AIRLOOPHVAC:ZONEMIXER,AIRLOOP G NW RETURN AIR MIXER,G NW APARTMENT RETURN AIR NODE,AIRLOOP G NW ZONE EQUIPMENT OUTLET NODE,AIRLOOP G NW
! <#Nodes on Return Air Path>,<Number of Nodes>
! <Return Air Path Node>,<Node Type>,<Node Count>,<Node Name>,<AirLoopHVAC Name>
   #Nodes on Return Air Path,2
   Return Air Path Node,Outlet Node,1,AIRLOOP G NW ZONE EQUIPMENT OUTLET NODE,AIRLOOP G NW
   Return Air Path Node,Inlet Node,2,G NW APARTMENT RETURN AIR NODE,AIRLOOP G NW
 Return Air Path,3,AIRLOOP OFFICE RETURN AIR PATH,AIRLOOP OFFICE
   #Components on Return Air Path,1
   Return Air Path Component,1,AIRLOOPHVAC:ZONEMIXER,AIRLOOP OFFICE RETURN AIR MIXER,AIRLOOP OFFICE
     #Inlet Nodes on Return Air Path Component,1
     Return Air Path Component Nodes,1,AIRLOOPHVAC:ZONEMIXER,AIRLOOP OFFICE RETURN AIR MIXER,OFFICE RETURN AIR NODE,AIRLOOP OFFICE ZONE EQUIPMENT OUTLET NODE,AIRLOOP OFFICE
! <#Nodes on Return Air Path>,<Number of Nodes>
! <Return Air Path Node>,<Node Type>,<Node Count>,<Node Name>,<AirLoopHVAC Name>
   #Nodes on Return Air Path,2
   Return Air Path Node,Outlet Node,1,AIRLOOP OFFICE ZONE EQUIPMENT OUTLET NODE,AIRLOOP OFFICE
   Return Air Path Node,Inlet Node,2,OFFICE RETURN AIR NODE,AIRLOOP OFFICE
 Return Air Path,4,AIRLOOP G NE RETURN AIR PATH,AIRLOOP G NE
   #Components on Return Air Path,1
   Return Air Path Component,1,AIRLOOPHVAC:ZONEMIXER,AIRLOOP G NE RETURN AIR MIXER,AIRLOOP G NE
     #Inlet Nodes on Return Air Path Component,1
     Return Air Path Component Nodes,1,AIRLOOPHVAC:ZONEMIXER,AIRLOOP G NE RETURN AIR MIXER,G NE APARTMENT RETURN AIR NODE,AIRLOOP G NE ZONE EQUIPMENT OUTLET NODE,AIRLOOP G NE
! <#Nodes on Return Air Path>,<Number of Nodes>
! <Return Air Path Node>,<Node Type>,<Node Count>,<Node Name>,<AirLoopHVAC Name>
   #Nodes on Return Air Path,2
   Return Air Path Node,Outlet Node,1,AIRLOOP G NE ZONE EQUIPMENT OUTLET NODE,AIRLOOP G NE
   Return Air Path Node,Inlet Node,2,G NE APARTMENT RETURN AIR NODE,AIRLOOP G NE
 Return Air Path,5,AIRLOOP G N1 RETURN AIR PATH,AIRLOOP G N1
   #Components on Return Air Path,1
   Return Air Path Component,1,AIRLOOPHVAC:ZONEMIXER,AIRLOOP G N1 RETURN AIR MIXER,AIRLOOP G N1
     #Inlet Nodes on Return Air Path Component,1
     Return Air Path Component Nodes,1,AIRLOOPHVAC:ZONEMIXER,AIRLOOP G N1 RETURN AIR MIXER,G N1 APARTMENT RETURN AIR NODE,AIRLOOP G N1 ZONE EQUIPMENT OUTLET NODE,AIRLOOP G N1
! <#Nodes on Return Air Path>,<Number of Nodes>
! <Return Air Path Node>,<Node Type>,<Node Count>,<Node Name>,<AirLoopHVAC Name>
   #Nodes on Return Air Path,2
   Return Air Path Node,Outlet Node,1,AIRLOOP G N1 ZONE EQUIPMENT OUTLET NODE,AIRLOOP G N1
   Return Air Path Node,Inlet Node,2,G N1 APARTMENT RETURN AIR NODE,AIRLOOP G N1
 Return Air Path,6,AIRLOOP G N2 RETURN AIR PATH,AIRLOOP G N2
   #Components on Return Air Path,1
   Return Air Path Component,1,AIRLOOPHVAC:ZONEMIXER,AIRLOOP G N2 RETURN AIR MIXER,AIRLOOP G N2
     #Inlet Nodes on Return Air Path Component,1
     Return Air Path Component Nodes,1,AIRLOOPHVAC:ZONEMIXER,AIRLOOP G N2 RETURN AIR MIXER,G N2 APARTMENT RETURN AIR NODE,AIRLOOP G N2 ZONE EQUIPMENT OUTLET NODE,AIRLOOP G N2
! <#Nodes on Return Air Path>,<Number of Nodes>
! <Return Air Path Node>,<Node Type>,<Node Count>,<Node Name>,<AirLoopHVAC Name>
   #Nodes on Return Air Path,2
   Return Air Path Node,Outlet Node,1,AIRLOOP G N2 ZONE EQUIPMENT OUTLET NODE,AIRLOOP G N2
   Return Air Path Node,Inlet Node,2,G N2 APARTMENT RETURN AIR NODE,AIRLOOP G N2
 Return Air Path,7,AIRLOOP G S1 RETURN AIR PATH,AIRLOOP G S1
   #Components on Return Air Path,1
   Return Air Path Component,1,AIRLOOPHVAC:ZONEMIXER,AIRLOOP G S1 RETURN AIR MIXER,AIRLOOP G S1
     #Inlet Nodes on Return Air Path Component,1
     Return Air Path Component Nodes,1,AIRLOOPHVAC:ZONEMIXER,AIRLOOP G S1 RETURN AIR MIXER,G S1 APARTMENT RETURN AIR NODE,AIRLOOP G S1 ZONE EQUIPMENT OUTLET NODE,AIRLOOP G S1
! <#Nodes on Return Air Path>,<Number of Nodes>
! <Return Air Path Node>,<Node Type>,<Node Count>,<Node Name>,<AirLoopHVAC Name>
   #Nodes on Return Air Path,2
   Return Air Path Node,Outlet Node,1,AIRLOOP G S1 ZONE EQUIPMENT OUTLET NODE,AIRLOOP G S1
   Return Air Path Node,Inlet Node,2,G S1 APARTMENT RETURN AIR NODE,AIRLOOP G S1
 Return Air Path,8,AIRLOOP G S2 RETURN AIR PATH,AIRLOOP G S2
   #Components on Return Air Path,1
   Return Air Path Component,1,AIRLOOPHVAC:ZONEMIXER,AIRLOOP G S2 RETURN AIR MIXER,AIRLOOP G S2
     #Inlet Nodes on Return Air Path Component,1
     Return Air Path Component Nodes,1,AIRLOOPHVAC:ZONEMIXER,AIRLOOP G S2 RETURN AIR MIXER,G S2 APARTMENT RETURN AIR NODE,AIRLOOP G S2 ZONE EQUIPMENT OUTLET NODE,AIRLOOP G S2
! <#Nodes on Return Air Path>,<Number of Nodes>
! <Return Air Path Node>,<Node Type>,<Node Count>,<Node Name>,<AirLoopHVAC Name>
   #Nodes on Return Air Path,2
   Return Air Path Node,Outlet Node,1,AIRLOOP G S2 ZONE EQUIPMENT OUTLET NODE,AIRLOOP G S2
   Return Air Path Node,Inlet Node,2,G S2 APARTMENT RETURN AIR NODE,AIRLOOP G S2
 Return Air Path,9,AIRLOOP M SW RETURN AIR PATH,AIRLOOP M SW
   #Components on Return Air Path,1
   Return Air Path Component,1,AIRLOOPHVAC:ZONEMIXER,AIRLOOP M SW RETURN AIR MIXER,AIRLOOP M SW
     #Inlet Nodes on Return Air Path Component,1
     Return Air Path Component Nodes,1,AIRLOOPHVAC:ZONEMIXER,AIRLOOP M SW RETURN AIR MIXER,M SW APARTMENT RETURN AIR NODE,AIRLOOP M SW ZONE EQUIPMENT OUTLET NODE,AIRLOOP M SW
! <#Nodes on Return Air Path>,<Number of Nodes>
! <Return Air Path Node>,<Node Type>,<Node Count>,<Node Name>,<AirLoopHVAC Name>
   #Nodes on Return Air Path,2
   Return Air Path Node,Outlet Node,1,AIRLOOP M SW ZONE EQUIPMENT OUTLET NODE,AIRLOOP M SW
   Return Air Path Node,Inlet Node,2,M SW APARTMENT RETURN AIR NODE,AIRLOOP M SW
 Return Air Path,10,AIRLOOP M NW RETURN AIR PATH,AIRLOOP M NW
   #Components on Return Air Path,1
   Return Air Path Component,1,AIRLOOPHVAC:ZONEMIXER,AIRLOOP M NW RETURN AIR MIXER,AIRLOOP M NW
     #Inlet Nodes on Return Air Path Component,1
     Return Air Path Component Nodes,1,AIRLOOPHVAC:ZONEMIXER,AIRLOOP M NW RETURN AIR MIXER,M NW APARTMENT RETURN AIR NODE,AIRLOOP M NW ZONE EQUIPMENT OUTLET NODE,AIRLOOP M NW
! <#Nodes on Return Air Path>,<Number of Nodes>
! <Return Air Path Node>,<Node Type>,<Node Count>,<Node Name>,<AirLoopHVAC Name>
   #Nodes on Return Air Path,2
   Return Air Path Node,Outlet Node,1,AIRLOOP M NW ZONE EQUIPMENT OUTLET NODE,AIRLOOP M NW
[...]
 Non-Parent Node Connection,AIRLOOP G S2 COOLING COIL OUTLET,COIL:HEATING:WATERTOAIRHEATPUMP:EQUATIONFIT,AIRLOOP G S2 HEATING COIL,Inlet,1
 Non-Parent Node Connection,AIRLOOP G S2 HEATING COIL OUTLET,COIL:HEATING:WATERTOAIRHEATPUMP:EQUATIONFIT,AIRLOOP G S2 HEATING COIL,Outlet,1
 Non-Parent Node Connection,AIRLOOP G SW HCOIL WATER INLET,COIL:HEATING:WATERTOAIRHEATPUMP:EQUATIONFIT,AIRLOOP G SW HEATING COIL,Inlet,2
 Non-Parent Node Connection,AIRLOOP G SW HCOIL WATER OUTLET,COIL:HEATING:WATERTOAIRHEATPUMP:EQUATIONFIT,AIRLOOP G SW HEATING COIL,Outlet,2
 Non-Parent Node Connection,AIRLOOP G SW COOLING COIL OUTLET,COIL:HEATING:WATERTOAIRHEATPUMP:EQUATIONFIT,AIRLOOP G SW HEATING COIL,Inlet,1
 Non-Parent Node Connection,AIRLOOP G SW HEATING COIL OUTLET,COIL:HEATING:WATERTOAIRHEATPUMP:EQUATIONFIT,AIRLOOP G SW HEATING COIL,Outlet,1
 Non-Parent Node Connection,AIRLOOP M N1 HCOIL WATER INLET,COIL:HEATING:WATERTOAIRHEATPUMP:EQUATIONFIT,AIRLOOP M N1 HEATING COIL,Inlet,2
 Non-Parent Node Connection,AIRLOOP M N1 HCOIL WATER OUTLET,COIL:HEATING:WATERTOAIRHEATPUMP:EQUATIONFIT,AIRLOOP M N1 HEATING COIL,Outlet,2
 Non-Parent Node Connection,AIRLOOP M N1 COOLING COIL OUTLET,COIL:HEATING:WATERTOAIRHEATPUMP:EQUATIONFIT,AIRLOOP M N1 HEATING COIL,Inlet,1
 Non-Parent Node Connection,AIRLOOP M N1 HEATING COIL OUTLET,COIL:HEATING:WATERTOAIRHEATPUMP:EQUATIONFIT,AIRLOOP M N1 HEATING COIL,Outlet,1
 Non-Parent Node Connection,AIRLOOP M N2 HCOIL WATER INLET,COIL:HEATING:WATERTOAIRHEATPUMP:EQUATIONFIT,AIRLOOP M N2 HEATING COIL,Inlet,2
 Non-Parent Node Connection,AIRLOOP M N2 HCOIL WATER OUTLET,COIL:HEATING:WATERTOAIRHEATPUMP:EQUATIONFIT,AIRLOOP M N2 HEATING COIL,Outlet,2
 Non-Parent Node Connection,AIRLOOP M N2 COOLING COIL OUTLET,COIL:HEATING:WATERTOAIRHEATPUMP:EQUATIONFIT,AIRLOOP M N2 HEATING COIL,Inlet,1
 Non-Parent Node Connection,AIRLOOP M N2 HEATING COIL OUTLET,COIL:HEATING:WATERTOAIRHEATPUMP:EQUATIONFIT,AIRLOOP M N2 HEATING COIL,Outlet,1
 Non-Parent Node Connection,AIRLOOP M NE HCOIL WATER INLET,COIL:HEATING:WATERTOAIRHEATPUMP:EQUATIONFIT,AIRLOOP M NE HEATING COIL,Inlet,2
 Non-Parent Node Connection,AIRLOOP M NE HCOIL WATER OUTLET,COIL:HEATING:WATERTOAIRHEATPUMP:EQUATIONFIT,AIRLOOP M NE HEATING COIL,Outlet,2
 Non-Parent Node Connection,AIRLOOP M NE COOLING COIL OUTLET,COIL:HEATING:WATERTOAIRHEATPUMP:EQUATIONFIT,AIRLOOP M NE HEATING COIL,Inlet,1
 Non-Parent Node Connection,AIRLOOP M NE HEATING COIL OUTLET,COIL:HEATING:WATERTOAIRHEATPUMP:EQUATIONFIT,AIRLOOP M NE HEATING COIL,Outlet,1
 Non-Parent Node Connection,AIRLOOP M NW HCOIL WATER INLET,COIL:HEATING:WATERTOAIRHEATPUMP:EQUATIONFIT,AIRLOOP M NW HEATING COIL,Inlet,2
 Non-Parent Node Connection,AIRLOOP M NW HCOIL WATER OUTLET,COIL:HEATING:WATERTOAIRHEATPUMP:EQUATIONFIT,AIRLOOP M NW HEATING COIL,Outlet,2
 Non-Parent Node Connection,AIRLOOP M NW COOLING COIL OUTLET,COIL:HEATING:WATERTOAIRHEATPUMP:EQUATIONFIT,AIRLOOP M NW HEATING COIL,Inlet,1
 Non-Parent Node Connection,AIRLOOP M NW HEATING COIL OUTLET,COIL:HEATING:WATERTOAIRHEATPUMP:EQUATIONFIT,AIRLOOP M NW HEATING COIL,Outlet,1
 Non-Parent Node Connection,AIRLOOP M S1 HCOIL WATER INLET,COIL:HEATING:WATERTOAIRHEATPUMP:EQUATIONFIT,AIRLOOP M S1 HEATING COIL,Inlet,2
 Non-Parent Node Connection,AIRLOOP M S1 HCOIL WATER OUTLET,COIL:HEATING:WATERTOAIRHEATPUMP:EQUATIONFIT,AIRLOOP M S1 HEATING COIL,Outlet,2
 Non-Parent Node Connection,AIRLOOP M S1 COOLING COIL OUTLET,COIL:HEATING:WATERTOAIRHEATPUMP:EQUATIONFIT,AIRLOOP M S1 HEATING COIL,Inlet,1
 Non-Parent Node Connection,AIRLOOP M S1 HEATING COIL OUTLET,COIL:HEATING:WATERTOAIRHEATPUMP:EQUATIONFIT,AIRLOOP M S1 HEATING COIL,Outlet,1
 Non-Parent Node Connection,AIRLOOP M S2 HCOIL WATER INLET,COIL:HEATING:WATERTOAIRHEATPUMP:EQUATIONFIT,AIRLOOP M S2 HEATING COIL,Inlet,2
 Non-Parent Node Connection,AIRLOOP M S2 HCOIL WATER OUTLET,COIL:HEATING:WATERTOAIRHEATPUMP:EQUATIONFIT,AIRLOOP M S2 HEATING COIL,Outlet,2
 Non-Parent Node Connection,AIRLOOP M S2 COOLING COIL OUTLET,COIL:HEATING:WATERTOAIRHEATPUMP:EQUATIONFIT,AIRLOOP M S2 HEATING COIL,Inlet,1
 Non-Parent Node Connection,AIRLOOP M S2 HEATING COIL OUTLET,COIL:HEATING:WATERTOAIRHEATPUMP:EQUATIONFIT,AIRLOOP M S2 HEATING COIL,Outlet,1
 Non-Parent Node Connection,AIRLOOP M SE HCOIL WATER INLET,COIL:HEATING:WATERTOAIRHEATPUMP:EQUATIONFIT,AIRLOOP M SE HEATING COIL,Inlet,2
 Non-Parent Node Connection,AIRLOOP M SE HCOIL WATER OUTLET,COIL:HEATING:WATERTOAIRHEATPUMP:EQUATIONFIT,AIRLOOP M SE HEATING COIL,Outlet,2
 Non-Parent Node Connection,AIRLOOP M SE COOLING COIL OUTLET,COIL:HEATING:WATERTOAIRHEATPUMP:EQUATIONFIT,AIRLOOP M SE HEATING COIL,Inlet,1
 Non-Parent Node Connection,AIRLOOP M SE HEATING COIL OUTLET,COIL:HEATING:WATERTOAIRHEATPUMP:EQUATIONFIT,AIRLOOP M SE HEATING COIL,Outlet,1
 Non-Parent Node Connection,AIRLOOP M SW HCOIL WATER INLET,COIL:HEATING:WATERTOAIRHEATPUMP:EQUATIONFIT,AIRLOOP M SW HEATING COIL,Inlet,2
 Non-Parent Node Connection,AIRLOOP M SW HCOIL WATER OUTLET,COIL:HEATING:WATERTOAIRHEATPUMP:EQUATIONFIT,AIRLOOP M SW HEATING COIL,Outlet,2
 Non-Parent Node Connection,AIRLOOP M SW COOLING COIL OUTLET,COIL:HEATING:WATERTOAIRHEATPUMP:EQUATIONFIT,AIRLOOP M SW HEATING COIL,Inlet,1
 Non-Parent Node Connection,AIRLOOP M SW HEATING COIL OUTLET,COIL:HEATING:WATERTOAIRHEATPUMP:EQUATIONFIT,AIRLOOP M SW HEATING COIL,Outlet,1
 Non-Parent Node Connection,AIRLOOP OFFICE HCOIL WATER INLET,COIL:HEATING:WATERTOAIRHEATPUMP:EQUATIONFIT,AIRLOOP OFFICE HEATING COIL,Inlet,2
 Non-Parent Node Connection,AIRLOOP OFFICE HCOIL WATER OUTLET,COIL:HEATING:WATERTOAIRHEATPUMP:EQUATIONFIT,AIRLOOP OFFICE HEATING COIL,Outlet,2
 Non-Parent Node Connection,AIRLOOP OFFICE COOLING COIL OUTLET,COIL:HEATING:WATERTOAIRHEATPUMP:EQUATIONFIT,AIRLOOP OFFICE HEATING COIL,Inlet,1
 Non-Parent Node Connection,AIRLOOP OFFICE HEATING COIL OUTLET,COIL:HEATING:WATERTOAIRHEATPUMP:EQUATIONFIT,AIRLOOP OFFICE HEATING COIL,Outlet,1
 Non-Parent Node Connection,AIRLOOP T N1 HCOIL WATER INLET,COIL:HEATING:WATERTOAIRHEATPUMP:EQUATIONFIT,AIRLOOP T N1 HEATING COIL,Inlet,2
 Non-Parent Node Connection,AIRLOOP T N1 HCOIL WATER OUTLET,COIL:HEATING:WATERTOAIRHEATPUMP:EQUATIONFIT,AIRLOOP T N1 HEATING COIL,Outlet,2
 Non-Parent Node Connection,AIRLOOP T N1 COOLING COIL OUTLET,COIL:HEATING:WATERTOAIRHEATPUMP:EQUATIONFIT,AIRLOOP T N1 HEATING COIL,Inlet,1
 Non-Parent Node Connection,AIRLOOP T N1 HEATING COIL OUTLET,COIL:HEATING:WATERTOAIRHEATPUMP:EQUATIONFIT,AIRLOOP T N1 HEATING COIL,Outlet,1
 Non-Parent Node Connection,AIRLOOP T N2 HCOIL WATER INLET,COIL:HEATING:WATERTOAIRHEATPUMP:EQUATIONFIT,AIRLOOP T N2 HEATING COIL,Inlet,2
 Non-Parent Node Connection,AIRLOOP T N2 HCOIL WATER OUTLET,COIL:HEATING:WATERTOAIRHEATPUMP:EQUATIONFIT,AIRLOOP T N2 HEATING COIL,Outlet,2
 Non-Parent Node Connection,AIRLOOP T N2 COOLING COIL OUTLET,COIL:HEATING:WATERTOAIRHEATPUMP:EQUATIONFIT,AIRLOOP T N2 HEATING COIL,Inlet,1
 Non-Parent Node Connection,AIRLOOP T N2 HEATING COIL OUTLET,COIL:HEATING:WATERTOAIRHEATPUMP:EQUATIONFIT,AIRLOOP T N2 HEATING COIL,Outlet,1
 Non-Parent Node Connection,AIRLOOP T NE HCOIL WATER INLET,COIL:HEATING:WATERTOAIRHEATPUMP:EQUATIONFIT,AIRLOOP T NE HEATING COIL,Inlet,2
 Non-Parent Node Connection,AIRLOOP T NE HCOIL WATER OUTLET,COIL:HEATING:WATERTOAIRHEATPUMP:EQUATIONFIT,AIRLOOP T NE HEATING COIL,Outlet,2
 Non-Parent Node Connection,AIRLOOP T NE COOLING COIL OUTLET,COIL:HEATING:WATERTOAIRHEATPUMP:EQUATIONFIT,AIRLOOP T NE HEATING COIL,Inlet,1
 Non-Parent Node Connection,AIRLOOP T NE HEATING COIL OUTLET,COIL:HEATING:WATERTOAIRHEATPUMP:EQUATIONFIT,AIRLOOP T NE HEATING COIL,Outlet,1
 Non-Parent Node Connection,AIRLOOP T NW HCOIL WATER INLET,COIL:HEATING:WATERTOAIRHEATPUMP:EQUATIONFIT,AIRLOOP T NW HEATING COIL,Inlet,2
 Non-Parent Node Connection,AIRLOOP T NW HCOIL WATER OUTLET,COIL:HEATING:WATERTOAIRHEATPUMP:EQUATIONFIT,AIRLOOP T NW HEATING COIL,Outlet,2
 Non-Parent Node Connection,AIRLOOP T NW COOLING COIL OUTLET,COIL:HEATING:WATERTOAIRHEATPUMP:EQUATIONFIT,AIRLOOP T NW HEATING COIL,Inlet,1
 Non-Parent Node Connection,AIRLOOP T NW HEATING COIL OUTLET,COIL:HEATING:WATERTOAIRHEATPUMP:EQUATIONFIT,AIRLOOP T NW HEATING COIL,Outlet,1
 Non-Parent Node Connection,AIRLOOP T S1 HCOIL WATER INLET,COIL:HEATING:WATERTOAIRHEATPUMP:EQUATIONFIT,AIRLOOP T S1 HEATING COIL,Inlet,2
 Non-Parent Node Connection,AIRLOOP T S1 HCOIL WATER OUTLET,COIL:HEATING:WATERTOAIRHEATPUMP:EQUATIONFIT,AIRLOOP T S1 HEATING COIL,Outlet,2
 Non-Parent Node Connection,AIRLOOP T S1 COOLING COIL OUTLET,COIL:HEATING:WATERTOAIRHEATPUMP:EQUATIONFIT,AIRLOOP T S1 HEATING COIL,Inlet,1
 Non-Parent Node Connection,AIRLOOP T S1 HEATING COIL OUTLET,COIL:HEATING:WATERTOAIRHEATPUMP:EQUATIONFIT,AIRLOOP T S1 HEATING COIL,Outlet,1
 Non-Parent Node Connection,AIRLOOP T S2 HCOIL WATER INLET,COIL:HEATING:WATERTOAIRHEATPUMP:EQUATIONFIT,AIRLOOP T S2 HEATING COIL,Inlet,2
 Non-Parent Node Connection,AIRLOOP T S2 HCOIL WATER OUTLET,COIL:HEATING:WATERTOAIRHEATPUMP:EQUATIONFIT,AIRLOOP T S2 HEATING COIL,Outlet,2
 Non-Parent Node Connection,AIRLOOP T S2 COOLING COIL OUTLET,COIL:HEATING:WATERTOAIRHEATPUMP:EQUATIONFIT,AIRLOOP T S2 HEATING COIL,Inlet,1
 Non-Parent Node Connection,AIRLOOP T S2 HEATING COIL OUTLET,COIL:HEATING:WATERTOAIRHEATPUMP:EQUATIONFIT,AIRLOOP T S2 HEATING COIL,Outlet,1
 Non-Parent Node Connection,AIRLOOP T SE HCOIL WATER INLET,COIL:HEATING:WATERTOAIRHEATPUMP:EQUATIONFIT,AIRLOOP T SE HEATING COIL,Inlet,2
 Non-Parent Node Connection,AIRLOOP T SE HCOIL WATER OUTLET,COIL:HEATING:WATERTOAIRHEATPUMP:EQUATIONFIT,AIRLOOP T SE HEATING COIL,Outlet,2
 Non-Parent Node Connection,AIRLOOP T SE COOLING COIL OUTLET,COIL:HEATING:WATERTOAIRHEATPUMP:EQUATIONFIT,AIRLOOP T SE HEATING COIL,Inlet,1
 Non-Parent Node Connection,AIRLOOP T SE HEATING COIL OUTLET,COIL:HEATING:WATERTOAIRHEATPUMP:EQUATIONFIT,AIRLOOP T SE HEATING COIL,Outlet,1
 Non-Parent Node Connection,AIRLOOP T SW HCOIL WATER INLET,COIL:HEATING:WATERTOAIRHEATPUMP:EQUATIONFIT,AIRLOOP T SW HEATING COIL,Inlet,2
 Non-Parent Node Connection,AIRLOOP T SW HCOIL WATER OUTLET,COIL:HEATING:WATERTOAIRHEATPUMP:EQUATIONFIT,AIRLOOP T SW HEATING COIL,Outlet,2
 Non-Parent Node Connection,AIRLOOP T SW COOLING COIL OUTLET,COIL:HEATING:WATERTOAIRHEATPUMP:EQUATIONFIT,AIRLOOP T SW HEATING COIL,Inlet,1
 Non-Parent Node Connection,AIRLOOP T SW HEATING COIL OUTLET,COIL:HEATING:WATERTOAIRHEATPUMP:EQUATIONFIT,AIRLOOP T SW HEATING COIL,Outlet,1
 Non-Parent Node Connection,AIRLOOP G SW HEATING COIL OUTLET,COIL:HEATING:ELECTRIC,AIRLOOP G SW_SUPPHEATCOIL,Inlet,1
 Non-Parent Node Connection,AIRLOOP G SW SUPPLY EQUIPMENT OUTLET NODE,COIL:HEATING:ELECTRIC,AIRLOOP G SW_SUPPHEATCOIL,Outlet,1
 Non-Parent Node Connection,AIRLOOP G NW HEATING COIL OUTLET,COIL:HEATING:ELECTRIC,AIRLOOP G NW_SUPPHEATCOIL,Inlet,1
 Non-Parent Node Connection,AIRLOOP G NW SUPPLY EQUIPMENT OUTLET NODE,COIL:HEATING:ELECTRIC,AIRLOOP G NW_SUPPHEATCOIL,Outlet,1
 Non-Parent Node Connection,AIRLOOP OFFICE HEATING COIL OUTLET,COIL:HEATING:ELECTRIC,AIRLOOP OFFICE_SUPPHEATCOIL,Inlet,1
 Non-Parent Node Connection,AIRLOOP OFFICE SUPPLY EQUIPMENT OUTLET NODE,COIL:HEATING:ELECTRIC,AIRLOOP OFFICE_SUPPHEATCOIL,Outlet,1
 Non-Parent Node Connection,AIRLOOP G NE HEATING COIL OUTLET,COIL:HEATING:ELECTRIC,AIRLOOP G NE_SUPPHEATCOIL,Inlet,1
 Non-Parent Node Connection,AIRLOOP G NE SUPPLY EQUIPMENT OUTLET NODE,COIL:HEATING:ELECTRIC,AIRLOOP G NE_SUPPHEATCOIL,Outlet,1
 Non-Parent Node Connection,AIRLOOP G N1 HEATING COIL OUTLET,COIL:HEATING:ELECTRIC,AIRLOOP G N1_SUPPHEATCOIL,Inlet,1
 Non-Parent Node Connection,AIRLOOP G N1 SUPPLY EQUIPMENT OUTLET NODE,COIL:HEATING:ELECTRIC,AIRLOOP G N1_SUPPHEATCOIL,Outlet,1
 Non-Parent Node Connection,AIRLOOP G N2 HEATING COIL OUTLET,COIL:HEATING:ELECTRIC,AIRLOOP G N2_SUPPHEATCOIL,Inlet,1
 Non-Parent Node Connection,AIRLOOP G N2 SUPPLY EQUIPMENT OUTLET NODE,COIL:HEATING:ELECTRIC,AIRLOOP G N2_SUPPHEATCOIL,Outlet,1
 Non-Parent Node Connection,AIRLOOP G S1 HEATING COIL OUTLET,COIL:HEATING:ELECTRIC,AIRLOOP G S1_SUPPHEATCOIL,Inlet,1
 Non-Parent Node Connection,AIRLOOP G S1 SUPPLY EQUIPMENT OUTLET NODE,COIL:HEATING:ELECTRIC,AIRLOOP G S1_SUPPHEATCOIL,Outlet,1
 Non-Parent Node Connection,AIRLOOP G S2 HEATING COIL OUTLET,COIL:HEATING:ELECTRIC,AIRLOOP G S2_SUPPHEATCOIL,Inlet,1
 Non-Parent Node Connection,AIRLOOP G S2 SUPPLY EQUIPMENT OUTLET NODE,COIL:HEATING:ELECTRIC,AIRLOOP G S2_SUPPHEATCOIL,Outlet,1
 Non-Parent Node Connection,AIRLOOP M SW HEATING COIL OUTLET,COIL:HEATING:ELECTRIC,AIRLOOP M SW_SUPPHEATCOIL,Inlet,1
 Non-Parent Node Connection,AIRLOOP M SW SUPPLY EQUIPMENT OUTLET NODE,COIL:HEATING:ELECTRIC,AIRLOOP M SW_SUPPHEATCOIL,Outlet,1
 Non-Parent Node Connection,AIRLOOP M NW HEATING COIL OUTLET,COIL:HEATING:ELECTRIC,AIRLOOP M NW_SUPPHEATCOIL,Inlet,1
 Non-Parent Node Connection,AIRLOOP M NW SUPPLY EQUIPMENT OUTLET NODE,COIL:HEATING:ELECTRIC,AIRLOOP M NW_SUPPHEATCOIL,Outlet,1
 Non-Parent Node Connection,AIRLOOP M SE HEATING COIL OUTLET,COIL:HEATING:ELECTRIC,AIRLOOP M SE_SUPPHEATCOIL,Inlet,1
 Non-Parent Node Connection,AIRLOOP M SE SUPPLY EQUIPMENT OUTLET NODE,COIL:HEATING:ELECTRIC,AIRLOOP M SE_SUPPHEATCOIL,Outlet,1
 Non-Parent Node Connection,AIRLOOP M NE HEATING COIL OUTLET,COIL:HEATING:ELECTRIC,AIRLOOP M NE_SUPPHEATCOIL,Inlet,1
 Non-Parent Node Connection,AIRLOOP M NE SUPPLY EQUIPMENT OUTLET NODE,COIL:HEATING:ELECTRIC,AIRLOOP M NE_SUPPHEATCOIL,Outlet,1
 Non-Parent Node Connection,AIRLOOP M N1 HEATING COIL OUTLET,COIL:HEATING:ELECTRIC,AIRLOOP M N1_SUPPHEATCOIL,Inlet,1
 Non-Parent Node Connection,AIRLOOP M N1 SUPPLY EQUIPMENT OUTLET NODE,COIL:HEATING:ELECTRIC,AIRLOOP M N1_SUPPHEATCOIL,Outlet,1
 Non-Parent Node Connection,AIRLOOP M N2 HEATING COIL OUTLET,COIL:HEATING:ELECTRIC,AIRLOOP M N2_SUPPHEATCOIL,Inlet,1
 Non-Parent Node Connection,AIRLOOP M N2 SUPPLY EQUIPMENT OUTLET NODE,COIL:HEATING:ELECTRIC,AIRLOOP M N2_SUPPHEATCOIL,Outlet,1
 Non-Parent Node Connection,AIRLOOP M S1 HEATING COIL OUTLET,COIL:HEATING:ELECTRIC,AIRLOOP M S1_SUPPHEATCOIL,Inlet,1
 Non-Parent Node Connection,AIRLOOP M S1 SUPPLY EQUIPMENT OUTLET NODE,COIL:HEATING:ELECTRIC,AIRLOOP M S1_SUPPHEATCOIL,Outlet,1
 Non-Parent Node Connection,AIRLOOP M S2 HEATING COIL OUTLET,COIL:HEATING:ELECTRIC,AIRLOOP M S2_SUPPHEATCOIL,Inlet,1
 Non-Parent Node Connection,AIRLOOP M S2 SUPPLY EQUIPMENT OUTLET NODE,COIL:HEATING:ELECTRIC,AIRLOOP M S2_SUPPHEATCOIL,Outlet,1
 Non-Parent Node Connection,AIRLOOP T SW HEATING COIL OUTLET,COIL:HEATING:ELECTRIC,AIRLOOP T SW_SUPPHEATCOIL,Inlet,1
 Non-Parent Node Connection,AIRLOOP T SW SUPPLY EQUIPMENT OUTLET NODE,COIL:HEATING:ELECTRIC,AIRLOOP T SW_SUPPHEATCOIL,Outlet,1
 Non-Parent Node Connection,AIRLOOP T NW HEATING COIL OUTLET,COIL:HEATING:ELECTRIC,AIRLOOP T NW_SUPPHEATCOIL,Inlet,1
 Non-Parent Node Connection,AIRLOOP T NW SUPPLY EQUIPMENT OUTLET NODE,COIL:HEATING:ELECTRIC,AIRLOOP T NW_SUPPHEATCOIL,Outlet,1
 Non-Parent Node Connection,AIRLOOP T SE HEATING COIL OUTLET,COIL:HEATING:ELECTRIC,AIRLOOP T SE_SUPPHEATCOIL,Inlet,1
 Non-Parent Node Connection,AIRLOOP T SE SUPPLY EQUIPMENT OUTLET NODE,COIL:HEATING:ELECTRIC,AIRLOOP T SE_SUPPHEATCOIL,Outlet,1
 Non-Parent Node Connection,AIRLOOP T NE HEATING COIL OUTLET,COIL:HEATING:ELECTRIC,AIRLOOP T NE_SUPPHEATCOIL,Inlet,1
 Non-Parent Node Connection,AIRLOOP T NE SUPPLY EQUIPMENT OUTLET NODE,COIL:HEATING:ELECTRIC,AIRLOOP T NE_SUPPHEATCOIL,Outlet,1
 Non-Parent Node Connection,AIRLOOP T N1 HEATING COIL OUTLET,COIL:HEATING:ELECTRIC,AIRLOOP T N1_SUPPHEATCOIL,Inlet,1
 Non-Parent Node Connection,AIRLOOP T N1 SUPPLY EQUIPMENT OUTLET NODE,COIL:HEATING:ELECTRIC,AIRLOOP T N1_SUPPHEATCOIL,Outlet,1
 Non-Parent Node Connection,AIRLOOP T N2 HEATING COIL OUTLET,COIL:HEATING:ELECTRIC,AIRLOOP T N2_SUPPHEATCOIL,Inlet,1
 Non-Parent Node Connection,AIRLOOP T N2 SUPPLY EQUIPMENT OUTLET NODE,COIL:HEATING:ELECTRIC,AIRLOOP T N2_SUPPHEATCOIL,Outlet,1
 Non-Parent Node Connection,AIRLOOP T S1 HEATING COIL OUTLET,COIL:HEATING:ELECTRIC,AIRLOOP T S1_SUPPHEATCOIL,Inlet,1
 Non-Parent Node Connection,AIRLOOP T S1 SUPPLY EQUIPMENT OUTLET NODE,COIL:HEATING:ELECTRIC,AIRLOOP T S1_SUPPHEATCOIL,Outlet,1
 Non-Parent Node Connection,AIRLOOP T S2 HEATING COIL OUTLET,COIL:HEATING:ELECTRIC,AIRLOOP T S2_SUPPHEATCOIL,Inlet,1
 Non-Parent Node Connection,AIRLOOP T S2 SUPPLY EQUIPMENT OUTLET NODE,COIL:HEATING:ELECTRIC,AIRLOOP T S2_SUPPHEATCOIL,Outlet,1
 Non-Parent Node Connection,COMMON OSA INLET NODE,AIRLOOPHVAC:UNITARYHEATPUMP:WATERTOAIR,AIRLOOP G SW DXAC HEAT PUMP,OutsideAirReference,1
 Non-Parent Node Connection,COMMON OSA INLET NODE,AIRLOOPHVAC:UNITARYHEATPUMP:WATERTOAIR,AIRLOOP G NW DXAC HEAT PUMP,OutsideAirReference,1
 Non-Parent Node Connection,COMMON OSA INLET NODE,AIRLOOPHVAC:UNITARYHEATPUMP:WATERTOAIR,AIRLOOP OFFICE DXAC HEAT PUMP,OutsideAirReference,1
 Non-Parent Node Connection,COMMON OSA INLET NODE,AIRLOOPHVAC:UNITARYHEATPUMP:WATERTOAIR,AIRLOOP G NE DXAC HEAT PUMP,OutsideAirReference,1
 Non-Parent Node Connection,COMMON OSA INLET NODE,AIRLOOPHVAC:UNITARYHEATPUMP:WATERTOAIR,AIRLOOP G N1 DXAC HEAT PUMP,OutsideAirReference,1
 Non-Parent Node Connection,COMMON OSA INLET NODE,AIRLOOPHVAC:UNITARYHEATPUMP:WATERTOAIR,AIRLOOP G N2 DXAC HEAT PUMP,OutsideAirReference,1
 Non-Parent Node Connection,COMMON OSA INLET NODE,AIRLOOPHVAC:UNITARYHEATPUMP:WATERTOAIR,AIRLOOP G S1 DXAC HEAT PUMP,OutsideAirReference,1
 Non-Parent Node Connection,COMMON OSA INLET NODE,AIRLOOPHVAC:UNITARYHEATPUMP:WATERTOAIR,AIRLOOP G S2 DXAC HEAT PUMP,OutsideAirReference,1
 Non-Parent Node Connection,COMMON OSA INLET NODE,AIRLOOPHVAC:UNITARYHEATPUMP:WATERTOAIR,AIRLOOP M SW DXAC HEAT PUMP,OutsideAirReference,1
 Non-Parent Node Connection,COMMON OSA INLET NODE,AIRLOOPHVAC:UNITARYHEATPUMP:WATERTOAIR,AIRLOOP M NW DXAC HEAT PUMP,OutsideAirReference,1
 Non-Parent Node Connection,COMMON OSA INLET NODE,AIRLOOPHVAC:UNITARYHEATPUMP:WATERTOAIR,AIRLOOP M SE DXAC HEAT PUMP,OutsideAirReference,1
 Non-Parent Node Connection,COMMON OSA INLET NODE,AIRLOOPHVAC:UNITARYHEATPUMP:WATERTOAIR,AIRLOOP M NE DXAC HEAT PUMP,OutsideAirReference,1
 Non-Parent Node Connection,COMMON OSA INLET NODE,AIRLOOPHVAC:UNITARYHEATPUMP:WATERTOAIR,AIRLOOP M N1 DXAC HEAT PUMP,OutsideAirReference,1
 Non-Parent Node Connection,COMMON OSA INLET NODE,AIRLOOPHVAC:UNITARYHEATPUMP:WATERTOAIR,AIRLOOP M N2 DXAC HEAT PUMP,OutsideAirReference,1
 Non-Parent Node Connection,COMMON OSA INLET NODE,AIRLOOPHVAC:UNITARYHEATPUMP:WATERTOAIR,AIRLOOP M S1 DXAC HEAT PUMP,OutsideAirReference,1
 Non-Parent Node Connection,COMMON OSA INLET NODE,AIRLOOPHVAC:UNITARYHEATPUMP:WATERTOAIR,AIRLOOP M S2 DXAC HEAT PUMP,OutsideAirReference,1
 Non-Parent Node Connection,COMMON OSA INLET NODE,AIRLOOPHVAC:UNITARYHEATPUMP:WATERTOAIR,AIRLOOP T SW DXAC HEAT PUMP,OutsideAirReference,1
 Non-Parent Node Connection,COMMON OSA INLET NODE,AIRLOOPHVAC:UNITARYHEATPUMP:WATERTOAIR,AIRLOOP T NW DXAC HEAT PUMP,OutsideAirReference,1
 Non-Parent Node Connection,COMMON OSA INLET NODE,AIRLOOPHVAC:UNITARYHEATPUMP:WATERTOAIR,AIRLOOP T SE DXAC HEAT PUMP,OutsideAirReference,1
 Non-Parent Node Connection,COMMON OSA INLET NODE,AIRLOOPHVAC:UNITARYHEATPUMP:WATERTOAIR,AIRLOOP T NE DXAC HEAT PUMP,OutsideAirReference,1
 Non-Parent Node Connection,COMMON OSA INLET NODE,AIRLOOPHVAC:UNITARYHEATPUMP:WATERTOAIR,AIRLOOP T N1 DXAC HEAT PUMP,OutsideAirReference,1
 Non-Parent Node Connection,COMMON OSA INLET NODE,AIRLOOPHVAC:UNITARYHEATPUMP:WATERTOAIR,AIRLOOP T N2 DXAC HEAT PUMP,OutsideAirReference,1
 Non-Parent Node Connection,COMMON OSA INLET NODE,AIRLOOPHVAC:UNITARYHEATPUMP:WATERTOAIR,AIRLOOP T S1 DXAC HEAT PUMP,OutsideAirReference,1
 Non-Parent Node Connection,COMMON OSA INLET NODE,AIRLOOPHVAC:UNITARYHEATPUMP:WATERTOAIR,AIRLOOP T S2 DXAC HEAT PUMP,OutsideAirReference,1
 Non-Parent Node Connection,PLANT SUPPLY INLET NODE,PUMP:CONSTANTSPEED,PLANT CIRC PUMP,Inlet,1
 Non-Parent Node Connection,PLANT PUMP OUTLET NODE,PUMP:CONSTANTSPEED,PLANT CIRC PUMP,Outlet,1
 Non-Parent Node Connection,SWHSYS1 SUPPLY INLET NODE,PUMP:CONSTANTSPEED,SWHSYS1 PUMP,Inlet,1
 Non-Parent Node Connection,SWHSYS1 PUMP-WATER HEATERNODEVIACONNECTOR,PUMP:CONSTANTSPEED,SWHSYS1 PUMP,Outlet,1
