Program Version,EnergyPlus, Version 26.1.0-6f2e40d102, YMD=2026.04.14 19:03
! <Version>, Version ID
 Version, 26.1
! <Timesteps per Hour>, #TimeSteps, Minutes per TimeStep {minutes}
 Timesteps per Hour,  6, 10
! <System Convergence Limits>, Minimum System TimeStep {minutes}, Max HVAC Iterations, Minimum Plant Iterations, Maximum Plant Iterations
 System Convergence Limits, 1, 20, 2, 8
! <Simulation Control>, Do Zone Sizing, Do System Sizing, Do Plant Sizing, Do Design Days, Do Weather Simulation, Do HVAC Sizing Simulation
 Simulation Control, Yes, Yes, Yes, No, Yes, No
! <Performance Precision Tradeoffs>, Use Coil Direct Simulation, Zone Radiant Exchange Algorithm, Override Mode, Number of Timestep In Hour, Force Euler Method, Minimum Number of Warmup Days, Force Suppress All Begin Environment Resets, Minimum System Timestep, MaxZoneTempDiff, MaxAllowedDelTemp
 Performance Precision Tradeoffs, No, ScriptF, Normal, 6, No, 1, No, 1.0, 0.300, 2.0000E-003
! <Output Reporting Tolerances>, Tolerance for Time Heating Setpoint Not Met, Tolerance for Zone Cooling Setpoint Not Met Time
 Output Reporting Tolerances, 0.556, 0.556, 
! <Site:GroundTemperature:BuildingSurface>,Jan{C},Feb{C},Mar{C},Apr{C},May{C},Jun{C},Jul{C},Aug{C},Sep{C},Oct{C},Nov{C},Dec{C}
 Site:GroundTemperature:BuildingSurface,  18.00,  18.00,  18.00,  18.00,  18.00,  18.00,  18.00,  18.00,  18.00,  18.00,  18.00,  18.00
! <Site:GroundTemperature:FCfactorMethod>,Jan{C},Feb{C},Mar{C},Apr{C},May{C},Jun{C},Jul{C},Aug{C},Sep{C},Oct{C},Nov{C},Dec{C}
 Site:GroundTemperature:FCfactorMethod,  16.00,  11.90,   7.70,   4.00,   7.90,  13.80,  17.20,  20.80,  24.80,  26.10,  26.50,  22.50
! <Site:GroundTemperature:Shallow>,Jan{C},Feb{C},Mar{C},Apr{C},May{C},Jun{C},Jul{C},Aug{C},Sep{C},Oct{C},Nov{C},Dec{C}
 Site:GroundTemperature:Shallow,  13.00,  13.00,  13.00,  13.00,  13.00,  13.00,  13.00,  13.00,  13.00,  13.00,  13.00,  13.00
! <Site:GroundTemperature:Deep>,Jan{C},Feb{C},Mar{C},Apr{C},May{C},Jun{C},Jul{C},Aug{C},Sep{C},Oct{C},Nov{C},Dec{C}
 Site:GroundTemperature:Deep,  16.00,  16.00,  16.00,  16.00,  16.00,  16.00,  16.00,  16.00,  16.00,  16.00,  16.00,  16.00
! <Site:GroundReflectance>,Jan{dimensionless},Feb{dimensionless},Mar{dimensionless},Apr{dimensionless},May{dimensionless},Jun{dimensionless},Jul{dimensionless},Aug{dimensionless},Sep{dimensionless},Oct{dimensionless},Nov{dimensionless},Dec{dimensionless}
 Site:GroundReflectance,  0.20,  0.20,  0.20,  0.20,  0.20,  0.20,  0.20,  0.20,  0.20,  0.20,  0.20,  0.20
! <Site:GroundReflectance:SnowModifier>, Normal, Daylighting {dimensionless}
 Site:GroundReflectance:SnowModifier,   1.000,   1.000
! <Site:GroundReflectance:Snow>,Jan{dimensionless},Feb{dimensionless},Mar{dimensionless},Apr{dimensionless},May{dimensionless},Jun{dimensionless},Jul{dimensionless},Aug{dimensionless},Sep{dimensionless},Oct{dimensionless},Nov{dimensionless},Dec{dimensionless}
 Site:GroundReflectance:Snow,  0.20,  0.20,  0.20,  0.20,  0.20,  0.20,  0.20,  0.20,  0.20,  0.20,  0.20,  0.20
! <Site:GroundReflectance:Snow:Daylighting>,Jan{dimensionless},Feb{dimensionless},Mar{dimensionless},Apr{dimensionless},May{dimensionless},Jun{dimensionless},Jul{dimensionless},Aug{dimensionless},Sep{dimensionless},Oct{dimensionless},Nov{dimensionless},Dec{dimensionless}
 Site:GroundReflectance:Snow:Daylighting,  0.20,  0.20,  0.20,  0.20,  0.20,  0.20,  0.20,  0.20,  0.20,  0.20,  0.20,  0.20
! <Environment:Weather Station>,Wind Sensor Height Above Ground {m},Wind Speed Profile Exponent {},Wind Speed Profile Boundary Layer Thickness {m},Air Temperature Sensor Height Above Ground {m},Wind Speed Modifier Coefficient-Internal,Temperature Modifier Coefficient-Internal
Environment:Weather Station,10.000,0.140,270.000,1.500,1.586,9.750E-003
! <Site:Location>, Location Name, Latitude {N+/S- Deg}, Longitude {E+/W- Deg},  Time Zone Number {GMT+/-}, Elevation {m},  Standard Pressure at Elevation {Pa}, Standard RhoAir at Elevation
Site:Location,Changsha HN CHN SRC-TMYx WMO#=576870,28.11,112.79,8.00,120.00,99892,1.1873
! <Site Water Mains Temperature Information>,Calculation Method{},Water Mains Temperature Schedule Name{},Annual Average Outdoor Air Temperature{C},Maximum Difference In Monthly Average Outdoor Air Temperatures{deltaC},Fixed Default Water Mains Temperature{C}
Site Water Mains Temperature Information,Correlation,NA,16.60,22.50,NA
! <Building Information>, Building Name,North Axis {deg},Terrain,  Loads Convergence Tolerance Value,Temperature Convergence Tolerance Value,  Solar Distribution,Maximum Number of Warmup Days,Minimum Number of Warmup Days
 Building Information,ApartmentHighRise,0.000,City,4.00000E-002,0.20000,FullInteriorAndExterior,25,6
! <Inside Convection Algorithm>, Algorithm {Simple | TARP | CeilingDiffuser | AdaptiveConvectionAlgorithm}
Inside Convection Algorithm,TARP
! <Outside Convection Algorithm>, Algorithm {SimpleCombined | TARP | MoWitt | DOE-2 | AdaptiveConvectionAlgorithm}
Outside Convection Algorithm,DOE-2
! <Sky Radiance Distribution>, Value {Anisotropic}
Sky Radiance Distribution,Anisotropic
! <Zone Air Solution Algorithm>, Algorithm {ThirdOrderBackwardDifference | AnalyticalSolution | EulerMethod}, Space Heat Balance Sizing, Space Heat Balance Simulation
 Zone Air Solution Algorithm, ThirdOrderBackwardDifference, No, No
! <Zone Air Carbon Dioxide Balance Simulation>, Simulation {Yes/No}, Carbon Dioxide Concentration
 Zone Air Carbon Dioxide Balance Simulation, No,N/A
! <Zone Air Generic Contaminant Balance Simulation>, Simulation {Yes/No}, Generic Contaminant Concentration
 Zone Air Generic Contaminant Balance Simulation, No,N/A
! <Zone Air Mass Flow Balance Simulation>, Enforce Mass Balance, Adjust Zone Mixing and Return {AdjustMixingOnly | AdjustReturnOnly | AdjustMixingThenReturn | AdjustReturnThenMixing | None}, Adjust Zone Infiltration {AddInfiltration | AdjustInfiltration | None}, Infiltration Zones {MixingSourceZonesOnly | AllZones}
 Zone Air Mass Flow Balance Simulation, No,N/A,N/A,N/A
! <HVACSystemRootFindingAlgorithm>, Value {RegulaFalsi | Bisection | BisectionThenRegulaFalsi | RegulaFalsiThenBisection}
 HVACSystemRootFindingAlgorithm, RegulaFalsi
! <Environment:Site Atmospheric Variation>,Wind Speed Profile Exponent {},Wind Speed Profile Boundary Layer Thickness {m},Air Temperature Gradient Coefficient {K/m}
Environment:Site Atmospheric Variation,0.330,460.000,6.500000E-003
! <Shadowing/Sun Position Calculations Annual Simulations>, Shading Calculation Method, Shading Calculation Update Frequency Method, Shading Calculation Update Frequency {days}, Maximum Figures in Shadow Overlap Calculations {}, Polygon Clipping Algorithm, Pixel Counting Resolution, Sky Diffuse Modeling Algorithm, Output External Shading Calculation Results, Disable Self-Shading Within Shading Zone Groups, Disable Self-Shading From Shading Zone Groups to Other Zones
Shadowing/Sun Position Calculations Annual Simulations,PolygonClipping,Periodic,30,15000,SutherlandHodgman,512,SimpleSkyDiffuseModeling,No,No,No
! <Surface Geometry>,Starting Corner,Vertex Input Direction,Coordinate System,Daylight Reference Point Coordinate System,Rectangular (Simple) Surface Coordinate System
 Surface Geometry,UpperLeftCorner,Counterclockwise,RelativeCoordinateSystem,RelativeCoordinateSystem,RelativeToZoneOrigin
! <Surface Heat Transfer Algorithm>, Value {CTF - ConductionTransferFunction | EMPD - MoisturePenetrationDepthConductionTransferFunction | CondFD - ConductionFiniteDifference | HAMT - CombinedHeatAndMoistureFiniteElement} - Description,Inside Surface Max Temperature Limit{C}, Surface Convection Coefficient Lower Limit {W/m2-K}, Surface Convection Coefficient Upper Limit {W/m2-K}
Surface Heat Transfer Algorithm, CTF - ConductionTransferFunction,200,0.10,1000.0
! <Shading Summary>, Number of Fixed Detached Shades, Number of Building Detached Shades, Number of Attached Shades
 Shading Summary,0,0,0
! <Zone Summary>, Number of Zones, Number of Zone Surfaces, Number of SubSurfaces
 Zone Summary,27,246,42
! <Zone Information>,Zone Name,North Axis {deg},Origin X-Coordinate {m},Origin Y-Coordinate {m},Origin Z-Coordinate {m},Centroid X-Coordinate {m},Centroid Y-Coordinate {m},Centroid Z-Coordinate {m},Type,Zone Multiplier,Zone List Multiplier,Minimum X {m},Maximum X {m},Minimum Y {m},Maximum Y {m},Minimum Z {m},Maximum Z {m},Ceiling Height {m},Volume {m3},Zone Inside Convection Algorithm {Simple-Detailed-CeilingDiffuser-TrombeWall},Zone Outside Convection Algorithm {Simple-Detailed-Tarp-MoWitt-DOE-2-BLAST}, Floor Area {m2},Exterior Gross Wall Area {m2},Exterior Net Wall Area {m2},Exterior Window Area {m2}, Number of Surfaces, Number of SubSurfaces, Number of Shading SubSurfaces,  Part of Total Building Area
 Zone Information, G SW APARTMENT,0.0,0.00,0.00,0.00,5.79,3.81,1.52,1,1,1,0.00,11.58,0.00,7.62,0.00,3.05,3.05,268.96,TARP,DOE-2,88.25,58.52,41.66,16.86,6,2,0,Yes
 Zone Information, G NW APARTMENT,0.0,0.00,9.30,0.00,5.79,13.11,1.52,1,1,1,0.00,11.58,9.30,16.92,0.00,3.05,3.05,268.96,TARP,DOE-2,88.25,58.52,41.66,16.86,6,2,0,Yes
 Zone Information, OFFICE,0.0,34.75,0.00,0.00,40.54,3.81,1.52,1,1,1,34.75,46.33,0.00,7.62,0.00,3.05,3.05,268.96,TARP,DOE-2,88.25,58.52,41.66,16.86,6,2,0,Yes
 Zone Information, G NE APARTMENT,0.0,34.75,9.30,0.00,40.54,13.11,1.52,1,1,1,34.75,46.33,9.30,16.92,0.00,3.05,3.05,268.96,TARP,DOE-2,88.25,58.52,41.66,16.86,6,2,0,Yes
 Zone Information, G N1 APARTMENT,0.0,11.58,9.30,0.00,17.37,13.11,1.52,1,1,1,11.58,23.16,9.30,16.92,0.00,3.05,3.05,268.96,TARP,DOE-2,88.25,35.30,25.13,10.17,6,1,0,Yes
 Zone Information, G N2 APARTMENT,0.0,23.16,9.30,0.00,28.95,13.11,1.52,1,1,1,23.16,34.75,9.30,16.92,0.00,3.05,3.05,268.97,TARP,DOE-2,88.25,35.30,25.13,10.17,6,1,0,Yes
 Zone Information, G S1 APARTMENT,0.0,11.58,0.00,0.00,17.37,3.81,1.52,1,1,1,11.58,23.16,0.00,7.62,0.00,3.05,3.05,268.96,TARP,DOE-2,88.25,35.30,25.13,10.17,6,1,0,Yes
 Zone Information, G S2 APARTMENT,0.0,23.16,0.00,0.00,28.95,3.81,1.52,1,1,1,23.16,34.75,0.00,7.62,0.00,3.05,3.05,268.97,TARP,DOE-2,88.25,35.30,25.13,10.17,6,1,0,Yes
 Zone Information, G CORRIDOR,0.0,0.00,7.62,0.00,23.16,8.46,1.52,1,1,1,0.00,46.33,7.62,9.30,0.00,3.05,3.05,236.69,TARP,DOE-2,77.66,10.22,5.74,4.47,12,2,0,Yes
 Zone Information, M SW APARTMENT,0.0,0.00,0.00,12.19,5.79,3.81,13.72,1,1,8,0.00,11.58,0.00,7.62,12.19,15.24,3.05,268.96,TARP,DOE-2,88.25,58.52,41.66,16.86,6,2,0,Yes
 Zone Information, M NW APARTMENT,0.0,0.00,9.30,12.19,5.79,13.11,13.72,1,1,8,0.00,11.58,9.30,16.92,12.19,15.24,3.05,268.96,TARP,DOE-2,88.25,58.52,41.66,16.86,6,2,0,Yes
 Zone Information, M SE APARTMENT,0.0,34.75,0.00,12.19,40.54,3.81,13.72,1,1,8,34.75,46.33,0.00,7.62,12.19,15.24,3.05,268.96,TARP,DOE-2,88.25,58.52,41.66,16.86,6,2,0,Yes
 Zone Information, M NE APARTMENT,0.0,34.75,9.30,12.19,40.54,13.11,13.72,1,1,8,34.75,46.33,9.30,16.92,12.19,15.24,3.05,268.96,TARP,DOE-2,88.25,58.52,41.66,16.86,6,2,0,Yes
 Zone Information, M N1 APARTMENT,0.0,11.58,9.30,12.19,17.37,13.11,13.72,1,1,8,11.58,23.16,9.30,16.92,12.19,15.24,3.05,268.96,TARP,DOE-2,88.25,35.30,25.13,10.17,6,1,0,Yes
 Zone Information, M N2 APARTMENT,0.0,23.16,9.30,12.19,28.95,13.11,13.72,1,1,8,23.16,34.75,9.30,16.92,12.19,15.24,3.05,268.97,TARP,DOE-2,88.25,35.30,25.13,10.17,6,1,0,Yes
 Zone Information, M S1 APARTMENT,0.0,11.58,0.00,12.19,17.37,3.81,13.72,1,1,8,11.58,23.16,0.00,7.62,12.19,15.24,3.05,268.96,TARP,DOE-2,88.25,35.30,25.13,10.17,6,1,0,Yes
 Zone Information, M S2 APARTMENT,0.0,23.16,0.00,12.19,28.95,3.81,13.72,1,1,8,23.16,34.75,0.00,7.62,12.19,15.24,3.05,268.97,TARP,DOE-2,88.25,35.30,25.13,10.17,6,1,0,Yes
 Zone Information, M CORRIDOR,0.0,0.00,7.62,12.19,23.16,8.46,13.72,1,1,8,0.00,46.33,7.62,9.30,12.19,15.24,3.05,236.69,TARP,DOE-2,77.66,10.22,7.99,2.23,12,2,0,Yes
 Zone Information, T SW APARTMENT,0.0,0.00,0.00,27.43,5.79,3.81,28.95,1,1,1,0.00,11.58,0.00,7.62,27.43,30.48,3.05,268.96,TARP,DOE-2,88.25,58.52,40.97,17.56,6,2,0,Yes
 Zone Information, T NW APARTMENT,0.0,0.00,9.30,27.43,5.79,13.11,28.95,1,1,1,0.00,11.58,9.30,16.92,27.43,30.48,3.05,268.96,TARP,DOE-2,88.25,58.52,40.97,17.56,6,2,0,Yes
 Zone Information, T SE APARTMENT,0.0,34.75,0.00,27.43,40.54,3.81,28.95,1,1,1,34.75,46.33,0.00,7.62,27.43,30.48,3.05,268.96,TARP,DOE-2,88.25,58.52,40.97,17.56,6,2,0,Yes
 Zone Information, T NE APARTMENT,0.0,34.75,9.30,27.43,40.54,13.11,28.95,1,1,1,34.75,46.33,9.30,16.92,27.43,30.48,3.05,268.96,TARP,DOE-2,88.25,58.52,40.97,17.56,6,2,0,Yes
 Zone Information, T N1 APARTMENT,0.0,11.58,9.30,27.43,17.37,13.11,28.95,1,1,1,11.58,23.16,9.30,16.92,27.43,30.48,3.05,268.96,TARP,DOE-2,88.25,35.30,24.71,10.59,6,1,0,Yes
 Zone Information, T N2 APARTMENT,0.0,23.16,9.30,27.43,28.95,13.11,28.95,1,1,1,23.16,34.75,9.30,16.92,27.43,30.48,3.05,268.97,TARP,DOE-2,88.25,35.30,24.71,10.59,6,1,0,Yes
 Zone Information, T S1 APARTMENT,0.0,11.58,0.00,27.43,17.37,3.81,28.95,1,1,1,11.58,23.16,0.00,7.62,27.43,30.48,3.05,268.96,TARP,DOE-2,88.25,35.30,24.71,10.59,6,1,0,Yes
 Zone Information, T S2 APARTMENT,0.0,23.16,0.00,27.43,28.95,3.81,28.95,1,1,1,23.16,34.75,0.00,7.62,27.43,30.48,3.05,268.97,TARP,DOE-2,88.25,35.30,24.71,10.59,6,1,0,Yes
 Zone Information, T CORRIDOR,0.0,0.00,7.62,27.43,23.16,8.46,28.95,1,1,1,0.00,46.33,7.62,9.30,27.43,30.48,3.05,236.69,TARP,DOE-2,77.66,10.22,7.99,2.23,12,2,0,Yes
! <Zone Internal Gains Nominal>,Zone Name, Floor Area {m2},# Occupants,Area per Occupant {m2/person},Occupant per Area {person/m2},Interior Lighting {W/m2},Electric Load {W/m2},Gas Load {W/m2},Other Load {W/m2},Hot Water Eq {W/m2},Steam Equipment {W/m2},Sum Loads per Area {W/m2},Outdoor Controlled Baseboard Heat
 Zone Internal Gains Nominal, G SW APARTMENT,88.25,2.5,35.299,2.833E-002,5.490,6.670,0.000,0.000,0.000,0.000,12.160,No
 Zone Internal Gains Nominal, G NW APARTMENT,88.25,2.5,35.299,2.833E-002,5.490,6.670,0.000,0.000,0.000,0.000,12.160,No
 Zone Internal Gains Nominal, OFFICE,88.25,4.7,18.581,5.382E-002,7.490,6.670,0.000,0.000,0.000,0.000,14.160,No
 Zone Internal Gains Nominal, G NE APARTMENT,88.25,2.5,35.299,2.833E-002,5.490,6.670,0.000,0.000,0.000,0.000,12.160,No
 Zone Internal Gains Nominal, G N1 APARTMENT,88.25,2.5,35.299,2.833E-002,5.490,6.670,0.000,0.000,0.000,0.000,12.160,No
 Zone Internal Gains Nominal, G N2 APARTMENT,88.25,2.5,35.299,2.833E-002,5.490,6.670,0.000,0.000,0.000,0.000,12.160,No
 Zone Internal Gains Nominal, G S1 APARTMENT,88.25,2.5,35.299,2.833E-002,5.490,6.670,0.000,0.000,0.000,0.000,12.160,No
 Zone Internal Gains Nominal, G S2 APARTMENT,88.25,2.5,35.299,2.833E-002,5.490,6.670,0.000,0.000,0.000,0.000,12.160,No
 Zone Internal Gains Nominal, G CORRIDOR,77.66,4.2,18.579,5.383E-002,5.290,0.000,0.000,0.000,0.000,0.000,5.290,No
 Zone Internal Gains Nominal, M SW APARTMENT,88.25,2.5,35.299,2.833E-002,5.490,6.670,0.000,0.000,0.000,0.000,12.160,No
 Zone Internal Gains Nominal, M NW APARTMENT,88.25,2.5,35.299,2.833E-002,5.490,6.670,0.000,0.000,0.000,0.000,12.160,No
 Zone Internal Gains Nominal, M SE APARTMENT,88.25,2.5,35.299,2.833E-002,5.490,6.670,0.000,0.000,0.000,0.000,12.160,No
 Zone Internal Gains Nominal, M NE APARTMENT,88.25,2.5,35.299,2.833E-002,5.490,6.670,0.000,0.000,0.000,0.000,12.160,No
 Zone Internal Gains Nominal, M N1 APARTMENT,88.25,2.5,35.299,2.833E-002,5.490,6.670,0.000,0.000,0.000,0.000,12.160,No
 Zone Internal Gains Nominal, M N2 APARTMENT,88.25,2.5,35.299,2.833E-002,5.490,6.670,0.000,0.000,0.000,0.000,12.160,No
 Zone Internal Gains Nominal, M S1 APARTMENT,88.25,2.5,35.299,2.833E-002,5.490,6.670,0.000,0.000,0.000,0.000,12.160,No
 Zone Internal Gains Nominal, M S2 APARTMENT,88.25,2.5,35.299,2.833E-002,5.490,6.670,0.000,0.000,0.000,0.000,12.160,No
 Zone Internal Gains Nominal, M CORRIDOR,77.66,4.2,18.579,5.383E-002,5.290,0.000,0.000,0.000,0.000,0.000,5.290,No
 Zone Internal Gains Nominal, T SW APARTMENT,88.25,2.5,35.299,2.833E-002,5.490,6.670,0.000,0.000,0.000,0.000,12.160,No
 Zone Internal Gains Nominal, T NW APARTMENT,88.25,2.5,35.299,2.833E-002,5.490,6.670,0.000,0.000,0.000,0.000,12.160,No
 Zone Internal Gains Nominal, T SE APARTMENT,88.25,2.5,35.299,2.833E-002,5.490,6.670,0.000,0.000,0.000,0.000,12.160,No
 Zone Internal Gains Nominal, T NE APARTMENT,88.25,2.5,35.299,2.833E-002,5.490,6.670,0.000,0.000,0.000,0.000,12.160,No
 Zone Internal Gains Nominal, T N1 APARTMENT,88.25,2.5,35.299,2.833E-002,5.490,6.670,0.000,0.000,0.000,0.000,12.160,No
 Zone Internal Gains Nominal, T N2 APARTMENT,88.25,2.5,35.299,2.833E-002,5.490,6.670,0.000,0.000,0.000,0.000,12.160,No
 Zone Internal Gains Nominal, T S1 APARTMENT,88.25,2.5,35.299,2.833E-002,5.490,6.670,0.000,0.000,0.000,0.000,12.160,No
 Zone Internal Gains Nominal, T S2 APARTMENT,88.25,2.5,35.299,2.833E-002,5.490,6.670,0.000,0.000,0.000,0.000,12.160,No
 Zone Internal Gains Nominal, T CORRIDOR,77.66,4.2,18.579,5.383E-002,5.290,222.449,0.000,0.000,0.000,0.000,227.740,No
! <People Internal Gains Nominal>,Name,Schedule Name,Zone Name,Zone Floor Area {m2},# Zone Occupants,Number of People {},People/Floor Area {person/m2},Floor Area per person {m2/person},Fraction Radiant,Fraction Convected,Sensible Fraction Calculation,Activity level,ASHRAE 55 Warnings,Carbon Dioxide Generation Rate,Minimum Number of People for All Day Types,Maximum Number of People for All Day Types,Minimum Number of People for Weekdays, Maximum Number of People for Weekdays, Minimum Number of People for Weekends/Holidays, Maximum Number of People for Weekends /Holidays,Minimum Number of People for Summer Design Days, Maximum Number of People for Summer Design Days,Minimum Number of People for Winter Design Days, Maximum Number of People for Winter Design Days
 People Internal Gains Nominal, G SW APARTMENT PEOPLE,OCC_APT_SCH_WORKING_FAMILY,G SW APARTMENT,88.25,2.5,2.5,2.833E-002,35.299,0.500,0.500,AutoCalculate,ACTIVITY SCHEDULE,No,3.8200E-008,0.0,2.5,0.0,2.5,0.0,2.5,2.5,2.5,0.0,0.0,
 People Internal Gains Nominal, G NW APARTMENT PEOPLE,OCC_APT_SCH_STAY_HOME_FAMILY,G NW APARTMENT,88.25,2.5,2.5,2.833E-002,35.299,0.300,0.700,AutoCalculate,ACTIVITY SCHEDULE,No,3.8200E-008,0.6,2.5,0.6,2.5,0.6,2.5,0.6,2.5,0.6,2.5,
 People Internal Gains Nominal, OFFICE PEOPLE,OCC_OFF_W_SB_SCH,OFFICE,88.25,4.7,4.7,5.382E-002,18.581,0.300,0.700,AutoCalculate,ACTIVITY SCHEDULE,No,3.8200E-008,0.0,4.7,0.0,4.7,0.0,0.0,0.0,0.0,0.0,0.0,
 People Internal Gains Nominal, G NE APARTMENT PEOPLE,OCC_APT_SCH_STAY_HOME_FAMILY,G NE APARTMENT,88.25,2.5,2.5,2.833E-002,35.299,0.300,0.700,AutoCalculate,ACTIVITY SCHEDULE,No,3.8200E-008,0.6,2.5,0.6,2.5,0.6,2.5,0.6,2.5,0.6,2.5,
 People Internal Gains Nominal, G N1 APARTMENT PEOPLE,OCC_APT_SCH_STAY_HOME_FAMILY,G N1 APARTMENT,88.25,2.5,2.5,2.833E-002,35.299,0.300,0.700,AutoCalculate,ACTIVITY SCHEDULE,No,3.8200E-008,0.6,2.5,0.6,2.5,0.6,2.5,0.6,2.5,0.6,2.5,
 People Internal Gains Nominal, G N2 APARTMENT PEOPLE,OCC_APT_SCH_STAY_HOME_FAMILY,G N2 APARTMENT,88.25,2.5,2.5,2.833E-002,35.299,0.300,0.700,AutoCalculate,ACTIVITY SCHEDULE,No,3.8200E-008,0.6,2.5,0.6,2.5,0.6,2.5,0.6,2.5,0.6,2.5,
 People Internal Gains Nominal, G S1 APARTMENT PEOPLE,OCC_APT_SCH_WORKING_FAMILY,G S1 APARTMENT,88.25,2.5,2.5,2.833E-002,35.299,0.300,0.700,AutoCalculate,ACTIVITY SCHEDULE,No,3.8200E-008,0.0,2.5,0.0,2.5,0.0,2.5,2.5,2.5,0.0,0.0,
 People Internal Gains Nominal, G S2 APARTMENT PEOPLE,OCC_APT_SCH_WORKING_FAMILY,G S2 APARTMENT,88.25,2.5,2.5,2.833E-002,35.299,0.300,0.700,AutoCalculate,ACTIVITY SCHEDULE,No,3.8200E-008,0.0,2.5,0.0,2.5,0.0,2.5,2.5,2.5,0.0,0.0,
 People Internal Gains Nominal, M SW APARTMENT PEOPLE,OCC_APT_SCH_WORKING_FAMILY,M SW APARTMENT,88.25,2.5,2.5,2.833E-002,35.299,0.300,0.700,AutoCalculate,ACTIVITY SCHEDULE,No,3.8200E-008,0.0,2.5,0.0,2.5,0.0,2.5,2.5,2.5,0.0,0.0,
 People Internal Gains Nominal, M NW APARTMENT PEOPLE,OCC_APT_SCH_STAY_HOME_FAMILY,M NW APARTMENT,88.25,2.5,2.5,2.833E-002,35.299,0.300,0.700,AutoCalculate,ACTIVITY SCHEDULE,No,3.8200E-008,0.6,2.5,0.6,2.5,0.6,2.5,0.6,2.5,0.6,2.5,
 People Internal Gains Nominal, M SE APARTMENT PEOPLE,OCC_APT_SCH_WORKING_FAMILY,M SE APARTMENT,88.25,2.5,2.5,2.833E-002,35.299,0.300,0.700,AutoCalculate,ACTIVITY SCHEDULE,No,3.8200E-008,0.0,2.5,0.0,2.5,0.0,2.5,2.5,2.5,0.0,0.0,
 People Internal Gains Nominal, M NE APARTMENT PEOPLE,OCC_APT_SCH_STAY_HOME_FAMILY,M NE APARTMENT,88.25,2.5,2.5,2.833E-002,35.299,0.300,0.700,AutoCalculate,ACTIVITY SCHEDULE,No,3.8200E-008,0.6,2.5,0.6,2.5,0.6,2.5,0.6,2.5,0.6,2.5,
 People Internal Gains Nominal, M N1 APARTMENT PEOPLE,OCC_APT_SCH_STAY_HOME_FAMILY,M N1 APARTMENT,88.25,2.5,2.5,2.833E-002,35.299,0.300,0.700,AutoCalculate,ACTIVITY SCHEDULE,No,3.8200E-008,0.6,2.5,0.6,2.5,0.6,2.5,0.6,2.5,0.6,2.5,
 People Internal Gains Nominal, M N2 APARTMENT PEOPLE,OCC_APT_SCH_STAY_HOME_FAMILY,M N2 APARTMENT,88.25,2.5,2.5,2.833E-002,35.299,0.300,0.700,AutoCalculate,ACTIVITY SCHEDULE,No,3.8200E-008,0.6,2.5,0.6,2.5,0.6,2.5,0.6,2.5,0.6,2.5,
 People Internal Gains Nominal, M S1 APARTMENT PEOPLE,OCC_APT_SCH_WORKING_FAMILY,M S1 APARTMENT,88.25,2.5,2.5,2.833E-002,35.299,0.300,0.700,AutoCalculate,ACTIVITY SCHEDULE,No,3.8200E-008,0.0,2.5,0.0,2.5,0.0,2.5,2.5,2.5,0.0,0.0,
 People Internal Gains Nominal, M S2 APARTMENT PEOPLE,OCC_APT_SCH_WORKING_FAMILY,M S2 APARTMENT,88.25,2.5,2.5,2.833E-002,35.299,0.300,0.700,AutoCalculate,ACTIVITY SCHEDULE,No,3.8200E-008,0.0,2.5,0.0,2.5,0.0,2.5,2.5,2.5,0.0,0.0,
 People Internal Gains Nominal, T SW APARTMENT PEOPLE,OCC_APT_SCH_WORKING_FAMILY,T SW APARTMENT,88.25,2.5,2.5,2.833E-002,35.299,0.300,0.700,AutoCalculate,ACTIVITY SCHEDULE,No,3.8200E-008,0.0,2.5,0.0,2.5,0.0,2.5,2.5,2.5,0.0,0.0,
 People Internal Gains Nominal, T NW APARTMENT PEOPLE,OCC_APT_SCH_STAY_HOME_FAMILY,T NW APARTMENT,88.25,2.5,2.5,2.833E-002,35.299,0.300,0.700,AutoCalculate,ACTIVITY SCHEDULE,No,3.8200E-008,0.6,2.5,0.6,2.5,0.6,2.5,0.6,2.5,0.6,2.5,
 People Internal Gains Nominal, T SE APARTMENT PEOPLE,OCC_APT_SCH_WORKING_FAMILY,T SE APARTMENT,88.25,2.5,2.5,2.833E-002,35.299,0.300,0.700,AutoCalculate,ACTIVITY SCHEDULE,No,3.8200E-008,0.0,2.5,0.0,2.5,0.0,2.5,2.5,2.5,0.0,0.0,
 People Internal Gains Nominal, T NE APARTMENT PEOPLE,OCC_APT_SCH_STAY_HOME_FAMILY,T NE APARTMENT,88.25,2.5,2.5,2.833E-002,35.299,0.300,0.700,AutoCalculate,ACTIVITY SCHEDULE,No,3.8200E-008,0.6,2.5,0.6,2.5,0.6,2.5,0.6,2.5,0.6,2.5,
 People Internal Gains Nominal, T N1 APARTMENT PEOPLE,OCC_APT_SCH_STAY_HOME_FAMILY,T N1 APARTMENT,88.25,2.5,2.5,2.833E-002,35.299,0.300,0.700,AutoCalculate,ACTIVITY SCHEDULE,No,3.8200E-008,0.6,2.5,0.6,2.5,0.6,2.5,0.6,2.5,0.6,2.5,
 People Internal Gains Nominal, T N2 APARTMENT PEOPLE,OCC_APT_SCH_STAY_HOME_FAMILY,T N2 APARTMENT,88.25,2.5,2.5,2.833E-002,35.299,0.300,0.700,AutoCalculate,ACTIVITY SCHEDULE,No,3.8200E-008,0.6,2.5,0.6,2.5,0.6,2.5,0.6,2.5,0.6,2.5,
 People Internal Gains Nominal, T S1 APARTMENT PEOPLE,OCC_APT_SCH_WORKING_FAMILY,T S1 APARTMENT,88.25,2.5,2.5,2.833E-002,35.299,0.300,0.700,AutoCalculate,ACTIVITY SCHEDULE,No,3.8200E-008,0.0,2.5,0.0,2.5,0.0,2.5,2.5,2.5,0.0,0.0,
 People Internal Gains Nominal, T S2 APARTMENT PEOPLE,OCC_APT_SCH_WORKING_FAMILY,T S2 APARTMENT,88.25,2.5,2.5,2.833E-002,35.299,0.300,0.700,AutoCalculate,ACTIVITY SCHEDULE,No,3.8200E-008,0.0,2.5,0.0,2.5,0.0,2.5,2.5,2.5,0.0,0.0,
 People Internal Gains Nominal, G CORRIDOR PEOPLE,OCC_APT_SCH_CORRIDOR,G CORRIDOR,77.66,4.2,4.2,5.383E-002,18.579,0.500,0.500,AutoCalculate,ACTIVITY SCHEDULE,No,3.8200E-008,1.0,4.2,1.0,4.2,1.0,4.2,1.0,4.2,1.0,4.2,
 People Internal Gains Nominal, M CORRIDOR PEOPLE,OCC_APT_SCH_CORRIDOR,M CORRIDOR,77.66,4.2,4.2,5.383E-002,18.579,0.500,0.500,AutoCalculate,ACTIVITY SCHEDULE,No,3.8200E-008,1.0,4.2,1.0,4.2,1.0,4.2,1.0,4.2,1.0,4.2,
 People Internal Gains Nominal, T CORRIDOR PEOPLE,OCC_APT_SCH_CORRIDOR,T CORRIDOR,77.66,4.2,4.2,5.383E-002,18.579,0.500,0.500,AutoCalculate,ACTIVITY SCHEDULE,No,3.8200E-008,1.0,4.2,1.0,4.2,1.0,4.2,1.0,4.2,1.0,4.2,
! <Lights Internal Gains Nominal>,Name,Schedule Name,Zone Name,Zone Floor Area {m2},# Zone Occupants,Lighting Level {W},Lights/Floor Area {W/m2},Lights per person {W/person},Fraction Return Air,Fraction Radiant,Fraction Short Wave,Fraction Convected,Fraction Replaceable,End-Use, Minimum Lighting Level for All Day Types {W},Maximum Lighting Level for All Day Types {W},Minimum Lighting Level for Weekdays {W}, Maximum Lighting Level for Weekdays {W},Minimum Lighting Level for Weekends/Holidays {W}, Maximum Lighting Level for Weekends /Holidays {W},Minimum Lighting Level for Summer Design Days {W}, Maximum Lighting Level for Summer Design Days {W},Minimum Lighting Level for Winter Design Days {W}, Maximum Lighting Level for Winter Design Days {W}
 Lights Internal Gains Nominal, G SW APARTMENT_LIGHTS_HARDWIRED,LTG_SCH_APARTMENT_HARDWIRED,G SW APARTMENT,88.25,2.5,398.958,4.521,159.583,0.000,0.600,0.200,0.200,1.000,LightsWired,0.000,398.958,4.516,72.2,4.516,72.235,398.958,398.958,0.000,0.000
 Lights Internal Gains Nominal, G NW APARTMENT_LIGHTS_HARDWIRED,LTG_SCH_APARTMENT_HARDWIRED,G NW APARTMENT,88.25,2.5,398.958,4.521,159.583,0.000,0.600,0.200,0.200,1.000,LightsWired,0.000,398.958,4.516,72.2,4.516,72.235,398.958,398.958,0.000,0.000
 Lights Internal Gains Nominal, OFFICE_LIGHTS_HARDWIRED,LTG_SCH_OFFICE,OFFICE,88.25,4.7,660.940,7.490,139.160,0.000,0.600,0.200,0.200,1.000,LightsWired,0.000,660.940,89.524,447.6,89.524,89.524,660.940,660.940,0.000,0.000
 Lights Internal Gains Nominal, G NE APARTMENT_LIGHTS_HARDWIRED,LTG_SCH_APARTMENT_HARDWIRED,G NE APARTMENT,88.25,2.5,398.958,4.521,159.583,0.000,0.600,0.200,0.200,1.000,LightsWired,0.000,398.958,4.516,72.2,4.516,72.235,398.958,398.958,0.000,0.000
 Lights Internal Gains Nominal, G N1 APARTMENT_LIGHTS_HARDWIRED,LTG_SCH_APARTMENT_HARDWIRED,G N1 APARTMENT,88.25,2.5,398.958,4.521,159.583,0.000,0.600,0.200,0.200,1.000,LightsWired,0.000,398.958,4.516,72.2,4.516,72.235,398.958,398.958,0.000,0.000
 Lights Internal Gains Nominal, G N2 APARTMENT_LIGHTS_HARDWIRED,LTG_SCH_APARTMENT_HARDWIRED,G N2 APARTMENT,88.25,2.5,398.958,4.521,159.583,0.000,0.600,0.200,0.200,1.000,LightsWired,0.000,398.958,4.516,72.2,4.516,72.235,398.958,398.958,0.000,0.000
 Lights Internal Gains Nominal, G S1 APARTMENT_LIGHTS_HARDWIRED,LTG_SCH_APARTMENT_HARDWIRED,G S1 APARTMENT,88.25,2.5,398.958,4.521,159.583,0.000,0.600,0.200,0.200,1.000,LightsWired,0.000,398.958,4.516,72.2,4.516,72.235,398.958,398.958,0.000,0.000
 Lights Internal Gains Nominal, G S2 APARTMENT_LIGHTS_HARDWIRED,LTG_SCH_APARTMENT_HARDWIRED,G S2 APARTMENT,88.25,2.5,398.958,4.521,159.583,0.000,0.600,0.200,0.200,1.000,LightsWired,0.000,398.958,4.516,72.2,4.516,72.235,398.958,398.958,0.000,0.000
 Lights Internal Gains Nominal, G CORRIDOR_LIGHTS_HARDWIRED,LTG_SCH_CORRIDOR,G CORRIDOR,77.66,4.2,410.849,5.290,98.289,0.000,0.600,0.200,0.200,1.000,LightsWired,0.000,410.849,256.781,256.8,256.781,256.781,410.849,410.849,0.000,0.000
 Lights Internal Gains Nominal, M SW APARTMENT_LIGHTS_HARDWIRED,LTG_SCH_APARTMENT_HARDWIRED,M SW APARTMENT,88.25,2.5,398.958,4.521,159.583,0.000,0.600,0.200,0.200,1.000,LightsWired,0.000,398.958,4.516,72.2,4.516,72.235,398.958,398.958,0.000,0.000
 Lights Internal Gains Nominal, M NW APARTMENT_LIGHTS_HARDWIRED,LTG_SCH_APARTMENT_HARDWIRED,M NW APARTMENT,88.25,2.5,398.958,4.521,159.583,0.000,0.600,0.200,0.200,1.000,LightsWired,0.000,398.958,4.516,72.2,4.516,72.235,398.958,398.958,0.000,0.000
 Lights Internal Gains Nominal, M SE APARTMENT_LIGHTS_HARDWIRED,LTG_SCH_APARTMENT_HARDWIRED,M SE APARTMENT,88.25,2.5,398.958,4.521,159.583,0.000,0.600,0.200,0.200,1.000,LightsWired,0.000,398.958,4.516,72.2,4.516,72.235,398.958,398.958,0.000,0.000
 Lights Internal Gains Nominal, M NE APARTMENT_LIGHTS_HARDWIRED,LTG_SCH_APARTMENT_HARDWIRED,M NE APARTMENT,88.25,2.5,398.958,4.521,159.583,0.000,0.600,0.200,0.200,1.000,LightsWired,0.000,398.958,4.516,72.2,4.516,72.235,398.958,398.958,0.000,0.000
 Lights Internal Gains Nominal, M N1 APARTMENT_LIGHTS_HARDWIRED,LTG_SCH_APARTMENT_HARDWIRED,M N1 APARTMENT,88.25,2.5,398.958,4.521,159.583,0.000,0.600,0.200,0.200,1.000,LightsWired,0.000,398.958,4.516,72.2,4.516,72.235,398.958,398.958,0.000,0.000
 Lights Internal Gains Nominal, M N2 APARTMENT_LIGHTS_HARDWIRED,LTG_SCH_APARTMENT_HARDWIRED,M N2 APARTMENT,88.25,2.5,398.958,4.521,159.583,0.000,0.600,0.200,0.200,1.000,LightsWired,0.000,398.958,4.516,72.2,4.516,72.235,398.958,398.958,0.000,0.000
 Lights Internal Gains Nominal, M S1 APARTMENT_LIGHTS_HARDWIRED,LTG_SCH_APARTMENT_HARDWIRED,M S1 APARTMENT,88.25,2.5,398.958,4.521,159.583,0.000,0.600,0.200,0.200,1.000,LightsWired,0.000,398.958,4.516,72.2,4.516,72.235,398.958,398.958,0.000,0.000
 Lights Internal Gains Nominal, M S2 APARTMENT_LIGHTS_HARDWIRED,LTG_SCH_APARTMENT_HARDWIRED,M S2 APARTMENT,88.25,2.5,398.958,4.521,159.583,0.000,0.600,0.200,0.200,1.000,LightsWired,0.000,398.958,4.516,72.2,4.516,72.235,398.958,398.958,0.000,0.000
 Lights Internal Gains Nominal, M CORRIDOR_LIGHTS_HARDWIRED,LTG_SCH_CORRIDOR,M CORRIDOR,77.66,4.2,410.849,5.290,98.289,0.000,0.600,0.200,0.200,1.000,LightsWired,0.000,410.849,256.781,256.8,256.781,256.781,410.849,410.849,0.000,0.000
 Lights Internal Gains Nominal, T SW APARTMENT_LIGHTS_HARDWIRED,LTG_SCH_APARTMENT_HARDWIRED,T SW APARTMENT,88.25,2.5,398.958,4.521,159.583,0.000,0.600,0.200,0.200,1.000,LightsWired,0.000,398.958,4.516,72.2,4.516,72.235,398.958,398.958,0.000,0.000
 Lights Internal Gains Nominal, T NW APARTMENT_LIGHTS_HARDWIRED,LTG_SCH_APARTMENT_HARDWIRED,T NW APARTMENT,88.25,2.5,398.958,4.521,159.583,0.000,0.600,0.200,0.200,1.000,LightsWired,0.000,398.958,4.516,72.2,4.516,72.235,398.958,398.958,0.000,0.000
 Lights Internal Gains Nominal, T SE APARTMENT_LIGHTS_HARDWIRED,LTG_SCH_APARTMENT_HARDWIRED,T SE APARTMENT,88.25,2.5,398.958,4.521,159.583,0.000,0.600,0.200,0.200,1.000,LightsWired,0.000,398.958,4.516,72.2,4.516,72.235,398.958,398.958,0.000,0.000
 Lights Internal Gains Nominal, T NE APARTMENT_LIGHTS_HARDWIRED,LTG_SCH_APARTMENT_HARDWIRED,T NE APARTMENT,88.25,2.5,398.958,4.521,159.583,0.000,0.600,0.200,0.200,1.000,LightsWired,0.000,398.958,4.516,72.2,4.516,72.235,398.958,398.958,0.000,0.000
 Lights Internal Gains Nominal, T N1 APARTMENT_LIGHTS_HARDWIRED,LTG_SCH_APARTMENT_HARDWIRED,T N1 APARTMENT,88.25,2.5,398.958,4.521,159.583,0.000,0.600,0.200,0.200,1.000,LightsWired,0.000,398.958,4.516,72.2,4.516,72.235,398.958,398.958,0.000,0.000
 Lights Internal Gains Nominal, T N2 APARTMENT_LIGHTS_HARDWIRED,LTG_SCH_APARTMENT_HARDWIRED,T N2 APARTMENT,88.25,2.5,398.958,4.521,159.583,0.000,0.600,0.200,0.200,1.000,LightsWired,0.000,398.958,4.516,72.2,4.516,72.235,398.958,398.958,0.000,0.000
 Lights Internal Gains Nominal, T S1 APARTMENT_LIGHTS_HARDWIRED,LTG_SCH_APARTMENT_HARDWIRED,T S1 APARTMENT,88.25,2.5,398.958,4.521,159.583,0.000,0.600,0.200,0.200,1.000,LightsWired,0.000,398.958,4.516,72.2,4.516,72.235,398.958,398.958,0.000,0.000
 Lights Internal Gains Nominal, T S2 APARTMENT_LIGHTS_HARDWIRED,LTG_SCH_APARTMENT_HARDWIRED,T S2 APARTMENT,88.25,2.5,398.958,4.521,159.583,0.000,0.600,0.200,0.200,1.000,LightsWired,0.000,398.958,4.516,72.2,4.516,72.235,398.958,398.958,0.000,0.000
 Lights Internal Gains Nominal, T CORRIDOR_LIGHTS_HARDWIRED,LTG_SCH_CORRIDOR,T CORRIDOR,77.66,4.2,410.849,5.290,98.289,0.000,0.600,0.200,0.200,1.000,LightsWired,0.000,410.849,256.781,256.8,256.781,256.781,410.849,410.849,0.000,0.000
 Lights Internal Gains Nominal, G SW APARTMENT_LIGHTS_PLUGIN,LTG_SCH_APARTMENT_PLUGIN,G SW APARTMENT,88.25,2.5,85.491,0.969,34.196,0.000,0.600,0.200,0.200,1.000,LightsPlugIn,0.000,85.491,0.968,15.5,0.968,15.479,85.491,85.491,0.000,0.000
 Lights Internal Gains Nominal, G NW APARTMENT_LIGHTS_PLUGIN,LTG_SCH_APARTMENT_PLUGIN,G NW APARTMENT,88.25,2.5,85.491,0.969,34.196,0.000,0.600,0.200,0.200,1.000,LightsPlugIn,0.000,85.491,0.968,15.5,0.968,15.479,85.491,85.491,0.000,0.000
 Lights Internal Gains Nominal, G NE APARTMENT_LIGHTS_PLUGIN,LTG_SCH_APARTMENT_PLUGIN,G NE APARTMENT,88.25,2.5,85.491,0.969,34.196,0.000,0.600,0.200,0.200,1.000,LightsPlugIn,0.000,85.491,0.968,15.5,0.968,15.479,85.491,85.491,0.000,0.000
 Lights Internal Gains Nominal, G N1 APARTMENT_LIGHTS_PLUGIN,LTG_SCH_APARTMENT_PLUGIN,G N1 APARTMENT,88.25,2.5,85.491,0.969,34.196,0.000,0.600,0.200,0.200,1.000,LightsPlugIn,0.000,85.491,0.968,15.5,0.968,15.479,85.491,85.491,0.000,0.000
 Lights Internal Gains Nominal, G N2 APARTMENT_LIGHTS_PLUGIN,LTG_SCH_APARTMENT_PLUGIN,G N2 APARTMENT,88.25,2.5,85.491,0.969,34.196,0.000,0.600,0.200,0.200,1.000,LightsPlugIn,0.000,85.491,0.968,15.5,0.968,15.479,85.491,85.491,0.000,0.000
 Lights Internal Gains Nominal, G S1 APARTMENT_LIGHTS_PLUGIN,LTG_SCH_APARTMENT_PLUGIN,G S1 APARTMENT,88.25,2.5,85.491,0.969,34.196,0.000,0.600,0.200,0.200,1.000,LightsPlugIn,0.000,85.491,0.968,15.5,0.968,15.479,85.491,85.491,0.000,0.000
 Lights Internal Gains Nominal, G S2 APARTMENT_LIGHTS_PLUGIN,LTG_SCH_APARTMENT_PLUGIN,G S2 APARTMENT,88.25,2.5,85.491,0.969,34.196,0.000,0.600,0.200,0.200,1.000,LightsPlugIn,0.000,85.491,0.968,15.5,0.968,15.479,85.491,85.491,0.000,0.000
 Lights Internal Gains Nominal, M SW APARTMENT_LIGHTS_PLUGIN,LTG_SCH_APARTMENT_PLUGIN,M SW APARTMENT,88.25,2.5,85.491,0.969,34.196,0.000,0.600,0.200,0.200,1.000,LightsPlugIn,0.000,85.491,0.968,15.5,0.968,15.479,85.491,85.491,0.000,0.000
 Lights Internal Gains Nominal, M NW APARTMENT_LIGHTS_PLUGIN,LTG_SCH_APARTMENT_PLUGIN,M NW APARTMENT,88.25,2.5,85.491,0.969,34.196,0.000,0.600,0.200,0.200,1.000,LightsPlugIn,0.000,85.491,0.968,15.5,0.968,15.479,85.491,85.491,0.000,0.000
 Lights Internal Gains Nominal, M SE APARTMENT_LIGHTS_PLUGIN,LTG_SCH_APARTMENT_PLUGIN,M SE APARTMENT,88.25,2.5,85.491,0.969,34.196,0.000,0.600,0.200,0.200,1.000,LightsPlugIn,0.000,85.491,0.968,15.5,0.968,15.479,85.491,85.491,0.000,0.000
 Lights Internal Gains Nominal, M NE APARTMENT_LIGHTS_PLUGIN,LTG_SCH_APARTMENT_PLUGIN,M NE APARTMENT,88.25,2.5,85.491,0.969,34.196,0.000,0.600,0.200,0.200,1.000,LightsPlugIn,0.000,85.491,0.968,15.5,0.968,15.479,85.491,85.491,0.000,0.000
 Lights Internal Gains Nominal, M N1 APARTMENT_LIGHTS_PLUGIN,LTG_SCH_APARTMENT_PLUGIN,M N1 APARTMENT,88.25,2.5,85.491,0.969,34.196,0.000,0.600,0.200,0.200,1.000,LightsPlugIn,0.000,85.491,0.968,15.5,0.968,15.479,85.491,85.491,0.000,0.000
 Lights Internal Gains Nominal, M N2 APARTMENT_LIGHTS_PLUGIN,LTG_SCH_APARTMENT_PLUGIN,M N2 APARTMENT,88.25,2.5,85.491,0.969,34.196,0.000,0.600,0.200,0.200,1.000,LightsPlugIn,0.000,85.491,0.968,15.5,0.968,15.479,85.491,85.491,0.000,0.000
 Lights Internal Gains Nominal, M S1 APARTMENT_LIGHTS_PLUGIN,LTG_SCH_APARTMENT_PLUGIN,M S1 APARTMENT,88.25,2.5,85.491,0.969,34.196,0.000,0.600,0.200,0.200,1.000,LightsPlugIn,0.000,85.491,0.968,15.5,0.968,15.479,85.491,85.491,0.000,0.000
 Lights Internal Gains Nominal, M S2 APARTMENT_LIGHTS_PLUGIN,LTG_SCH_APARTMENT_PLUGIN,M S2 APARTMENT,88.25,2.5,85.491,0.969,34.196,0.000,0.600,0.200,0.200,1.000,LightsPlugIn,0.000,85.491,0.968,15.5,0.968,15.479,85.491,85.491,0.000,0.000
 Lights Internal Gains Nominal, T SW APARTMENT_LIGHTS_PLUGIN,LTG_SCH_APARTMENT_PLUGIN,T SW APARTMENT,88.25,2.5,85.491,0.969,34.196,0.000,0.600,0.200,0.200,1.000,LightsPlugIn,0.000,85.491,0.968,15.5,0.968,15.479,85.491,85.491,0.000,0.000
 Lights Internal Gains Nominal, T NW APARTMENT_LIGHTS_PLUGIN,LTG_SCH_APARTMENT_PLUGIN,T NW APARTMENT,88.25,2.5,85.491,0.969,34.196,0.000,0.600,0.200,0.200,1.000,LightsPlugIn,0.000,85.491,0.968,15.5,0.968,15.479,85.491,85.491,0.000,0.000
 Lights Internal Gains Nominal, T SE APARTMENT_LIGHTS_PLUGIN,LTG_SCH_APARTMENT_PLUGIN,T SE APARTMENT,88.25,2.5,85.491,0.969,34.196,0.000,0.600,0.200,0.200,1.000,LightsPlugIn,0.000,85.491,0.968,15.5,0.968,15.479,85.491,85.491,0.000,0.000
 Lights Internal Gains Nominal, T NE APARTMENT_LIGHTS_PLUGIN,LTG_SCH_APARTMENT_PLUGIN,T NE APARTMENT,88.25,2.5,85.491,0.969,34.196,0.000,0.600,0.200,0.200,1.000,LightsPlugIn,0.000,85.491,0.968,15.5,0.968,15.479,85.491,85.491,0.000,0.000
 Lights Internal Gains Nominal, T N1 APARTMENT_LIGHTS_PLUGIN,LTG_SCH_APARTMENT_PLUGIN,T N1 APARTMENT,88.25,2.5,85.491,0.969,34.196,0.000,0.600,0.200,0.200,1.000,LightsPlugIn,0.000,85.491,0.968,15.5,0.968,15.479,85.491,85.491,0.000,0.000
 Lights Internal Gains Nominal, T N2 APARTMENT_LIGHTS_PLUGIN,LTG_SCH_APARTMENT_PLUGIN,T N2 APARTMENT,88.25,2.5,85.491,0.969,34.196,0.000,0.600,0.200,0.200,1.000,LightsPlugIn,0.000,85.491,0.968,15.5,0.968,15.479,85.491,85.491,0.000,0.000
 Lights Internal Gains Nominal, T S1 APARTMENT_LIGHTS_PLUGIN,LTG_SCH_APARTMENT_PLUGIN,T S1 APARTMENT,88.25,2.5,85.491,0.969,34.196,0.000,0.600,0.200,0.200,1.000,LightsPlugIn,0.000,85.491,0.968,15.5,0.968,15.479,85.491,85.491,0.000,0.000
 Lights Internal Gains Nominal, T S2 APARTMENT_LIGHTS_PLUGIN,LTG_SCH_APARTMENT_PLUGIN,T S2 APARTMENT,88.25,2.5,85.491,0.969,34.196,0.000,0.600,0.200,0.200,1.000,LightsPlugIn,0.000,85.491,0.968,15.5,0.968,15.479,85.491,85.491,0.000,0.000
! <ElectricEquipment Internal Gains Nominal>,Name,Schedule Name,Zone Name,Zone Floor Area {m2},# Zone Occupants,Equipment Level {W},Equipment/Floor Area {W/m2},Equipment per person {W/person},Fraction Latent,Fraction Radiant,Fraction Lost,Fraction Convected,End-Use SubCategory,Minimum Equipment Level for All Day Types {W},Maximum Equipment Level for All Day Types {W},Minimum Equipment Level for Weekdays {W}, Maximum Equipment Level for Weekdays {W},Minimum Equipment Level for Weekends/Holidays {W}, Maximum Equipment Level for Weekends /Holidays {W},Minimum Equipment Level for Summer Design Days {W}, Maximum Equipment Level for Summer Design Days {W},Minimum Equipment Level for Winter Design Days {W}, Maximum Equipment Level for Winter Design Days {W}
 ElectricEquipment Internal Gains Nominal, G SW APARTMENT_PLUG_GSW_EQUIP,EQP_APT_SCH,G SW APARTMENT,88.25,2.5,588.619,6.670,235.447,0.000,0.500,0.000,0.500,MiscPlug,223.675,588.619,223.675,588.619,223.675,588.619,223.675,588.619,223.675,588.619
 ElectricEquipment Internal Gains Nominal, G NW APARTMENT_PLUG_GNW_EQUIP,EQP_APT_SCH,G NW APARTMENT,88.25,2.5,588.619,6.670,235.447,0.000,0.500,0.000,0.500,MiscPlug,223.675,588.619,223.675,588.619,223.675,588.619,223.675,588.619,223.675,588.619
 ElectricEquipment Internal Gains Nominal, OFFICE_PLUG_OFFICE_EQUIP,EQP_OFF_SCH,OFFICE,88.25,4.7,588.619,6.670,123.933,0.000,0.500,0.000,0.500,MiscPlug,128.687,544.914,128.687,544.914,128.687,128.687,128.687,128.687,128.687,128.687
 ElectricEquipment Internal Gains Nominal, G NE APARTMENT_PLUG_GNE_EQUIP,EQP_APT_SCH,G NE APARTMENT,88.25,2.5,588.619,6.670,235.447,0.000,0.500,0.000,0.500,MiscPlug,223.675,588.619,223.675,588.619,223.675,588.619,223.675,588.619,223.675,588.619
 ElectricEquipment Internal Gains Nominal, G N1 APARTMENT_PLUG_GN1_EQUIP,EQP_APT_SCH,G N1 APARTMENT,88.25,2.5,588.619,6.670,235.447,0.000,0.500,0.000,0.500,MiscPlug,223.675,588.619,223.675,588.619,223.675,588.619,223.675,588.619,223.675,588.619
 ElectricEquipment Internal Gains Nominal, G N2 APARTMENT_PLUG_GN2_EQUIP,EQP_APT_SCH,G N2 APARTMENT,88.25,2.5,588.619,6.670,235.447,0.000,0.500,0.000,0.500,MiscPlug,223.675,588.619,223.675,588.619,223.675,588.619,223.675,588.619,223.675,588.619
 ElectricEquipment Internal Gains Nominal, G S1 APARTMENT_PLUG_GS1_EQUIP,EQP_APT_SCH,G S1 APARTMENT,88.25,2.5,588.619,6.670,235.447,0.000,0.500,0.000,0.500,MiscPlug,223.675,588.619,223.675,588.619,223.675,588.619,223.675,588.619,223.675,588.619
 ElectricEquipment Internal Gains Nominal, G S2 APARTMENT_PLUG_GS2_EQUIP,EQP_APT_SCH,G S2 APARTMENT,88.25,2.5,588.619,6.670,235.447,0.000,0.500,0.000,0.500,MiscPlug,223.675,588.619,223.675,588.619,223.675,588.619,223.675,588.619,223.675,588.619
 ElectricEquipment Internal Gains Nominal, M SW APARTMENT_PLUG_MSW_EQUIP,EQP_APT_SCH,M SW APARTMENT,88.25,2.5,588.619,6.670,235.447,0.000,0.500,0.000,0.500,MiscPlug,223.675,588.619,223.675,588.619,223.675,588.619,223.675,588.619,223.675,588.619
 ElectricEquipment Internal Gains Nominal, M NW APARTMENT_PLUG_MNW_EQUIP,EQP_APT_SCH,M NW APARTMENT,88.25,2.5,588.619,6.670,235.447,0.000,0.500,0.000,0.500,MiscPlug,223.675,588.619,223.675,588.619,223.675,588.619,223.675,588.619,223.675,588.619
 ElectricEquipment Internal Gains Nominal, M SE APARTMENT_PLUG_MSE_EQUIP,EQP_APT_SCH,M SE APARTMENT,88.25,2.5,588.619,6.670,235.447,0.000,0.500,0.000,0.500,MiscPlug,223.675,588.619,223.675,588.619,223.675,588.619,223.675,588.619,223.675,588.619
 ElectricEquipment Internal Gains Nominal, M NE APARTMENT_PLUG_MNE_EQUIP,EQP_APT_SCH,M NE APARTMENT,88.25,2.5,588.619,6.670,235.447,0.000,0.500,0.000,0.500,MiscPlug,223.675,588.619,223.675,588.619,223.675,588.619,223.675,588.619,223.675,588.619
 ElectricEquipment Internal Gains Nominal, M N1 APARTMENT_PLUG_MN1_EQUIP,EQP_APT_SCH,M N1 APARTMENT,88.25,2.5,588.619,6.670,235.447,0.000,0.500,0.000,0.500,MiscPlug,223.675,588.619,223.675,588.619,223.675,588.619,223.675,588.619,223.675,588.619
 ElectricEquipment Internal Gains Nominal, M N2 APARTMENT_PLUG_MN2_EQUIP,EQP_APT_SCH,M N2 APARTMENT,88.25,2.5,588.619,6.670,235.447,0.000,0.500,0.000,0.500,MiscPlug,223.675,588.619,223.675,588.619,223.675,588.619,223.675,588.619,223.675,588.619
 ElectricEquipment Internal Gains Nominal, M S1 APARTMENT_PLUG_MS1_EQUIP,EQP_APT_SCH,M S1 APARTMENT,88.25,2.5,588.619,6.670,235.447,0.000,0.500,0.000,0.500,MiscPlug,223.675,588.619,223.675,588.619,223.675,588.619,223.675,588.619,223.675,588.619
 ElectricEquipment Internal Gains Nominal, M S2 APARTMENT_PLUG_MS2_EQUIP,EQP_APT_SCH,M S2 APARTMENT,88.25,2.5,588.619,6.670,235.447,0.000,0.500,0.000,0.500,MiscPlug,223.675,588.619,223.675,588.619,223.675,588.619,223.675,588.619,223.675,588.619
 ElectricEquipment Internal Gains Nominal, T SW APARTMENT_PLUG_TSW_EQUIP,EQP_APT_SCH,T SW APARTMENT,88.25,2.5,588.619,6.670,235.447,0.000,0.500,0.000,0.500,MiscPlug,223.675,588.619,223.675,588.619,223.675,588.619,223.675,588.619,223.675,588.619
 ElectricEquipment Internal Gains Nominal, T NW APARTMENT_PLUG_TNW_EQUIP,EQP_APT_SCH,T NW APARTMENT,88.25,2.5,588.619,6.670,235.447,0.000,0.500,0.000,0.500,MiscPlug,223.675,588.619,223.675,588.619,223.675,588.619,223.675,588.619,223.675,588.619
 ElectricEquipment Internal Gains Nominal, T SE APARTMENT_PLUG_TSE_EQUIP,EQP_APT_SCH,T SE APARTMENT,88.25,2.5,588.619,6.670,235.447,0.000,0.500,0.000,0.500,MiscPlug,223.675,588.619,223.675,588.619,223.675,588.619,223.675,588.619,223.675,588.619
 ElectricEquipment Internal Gains Nominal, T NE APARTMENT_PLUG_TNE_EQUIP,EQP_APT_SCH,T NE APARTMENT,88.25,2.5,588.619,6.670,235.447,0.000,0.500,0.000,0.500,MiscPlug,223.675,588.619,223.675,588.619,223.675,588.619,223.675,588.619,223.675,588.619
 ElectricEquipment Internal Gains Nominal, T N1 APARTMENT_PLUG_TN1_EQUIP,EQP_APT_SCH,T N1 APARTMENT,88.25,2.5,588.619,6.670,235.447,0.000,0.500,0.000,0.500,MiscPlug,223.675,588.619,223.675,588.619,223.675,588.619,223.675,588.619,223.675,588.619
 ElectricEquipment Internal Gains Nominal, T N2 APARTMENT_PLUG_TN2_EQUIP,EQP_APT_SCH,T N2 APARTMENT,88.25,2.5,588.619,6.670,235.447,0.000,0.500,0.000,0.500,MiscPlug,223.675,588.619,223.675,588.619,223.675,588.619,223.675,588.619,223.675,588.619
 ElectricEquipment Internal Gains Nominal, T S1 APARTMENT_PLUG_TS1_EQUIP,EQP_APT_SCH,T S1 APARTMENT,88.25,2.5,588.619,6.670,235.447,0.000,0.500,0.000,0.500,MiscPlug,223.675,588.619,223.675,588.619,223.675,588.619,223.675,588.619,223.675,588.619
 ElectricEquipment Internal Gains Nominal, T S2 APARTMENT_PLUG_TS2_EQUIP,EQP_APT_SCH,T S2 APARTMENT,88.25,2.5,588.619,6.670,235.447,0.000,0.500,0.000,0.500,MiscPlug,223.675,588.619,223.675,588.619,223.675,588.619,223.675,588.619,223.675,588.619
 ElectricEquipment Internal Gains Nominal, T CORRIDOR_ELEVATORS_EQUIP,BLDG_ELEVATORS,T CORRIDOR,77.66,4.2,17212.050,221.638,4117.715,0.000,0.000,0.950,5.000E-002,ElevatorLift,2065.446,8606.025,2065.446,8606.025,2065.446,8606.025,8606.025,8606.025,2065.446,2065.446
 ElectricEquipment Internal Gains Nominal, ELEVATORS_LIGHTS_FAN,ELEV_LIGHT_FAN_SCH_ADD_DF,T CORRIDOR,77.66,4.2,63.000,0.811,15.072,0.000,0.000,0.950,5.000E-002,ElevatorLightsFan,3.150,31.500,3.150,31.500,3.150,31.500,31.500,31.500,3.150,3.150
! <Water Heater Information>,Type,Name,Volume {m3},Maximum Capacity {W},Standard Rated Recovery Efficiency, Standard Rated Energy Factor
! <ZoneInfiltration Airflow Stats Nominal>,Name,Input Object, Schedule Name,Zone Name, Zone Floor Area {m2}, # Zone Occupants,Design Volume Flow Rate {m3/s},Volume Flow Rate/Floor Area {m3/s-m2},Volume Flow Rate/Exterior Surface Area {m3/s-m2},ACH - Air Changes per Hour,Equation A - Constant Term Coefficient {},Equation B - Temperature Term Coefficient {1/C},Equation C - Velocity Term Coefficient {s/m}, Equation D - Velocity Squared Term Coefficient {s2/m2}
 ZoneInfiltration Airflow Stats Nominal, G SW APARTMENT_INFILTRATION,ZoneInfiltration:DesignFlowRate,INF_APT_SCH,G SW APARTMENT,88.25,2.5,3.736E-002,4.233E-004,6.383E-004,0.500,1.000,0.000,0.000,0.000
 ZoneInfiltration Airflow Stats Nominal, G NW APARTMENT_INFILTRATION,ZoneInfiltration:DesignFlowRate,INF_APT_SCH,G NW APARTMENT,88.25,2.5,3.736E-002,4.233E-004,6.383E-004,0.500,1.000,0.000,0.000,0.000
 ZoneInfiltration Airflow Stats Nominal, OFFICE_INFILTRATION,ZoneInfiltration:DesignFlowRate,INF_APT_SCH,OFFICE,88.25,4.7,3.736E-002,4.233E-004,6.383E-004,0.500,1.000,0.000,0.000,0.000
 ZoneInfiltration Airflow Stats Nominal, G NE APARTMENT_INFILTRATION,ZoneInfiltration:DesignFlowRate,INF_APT_SCH,G NE APARTMENT,88.25,2.5,3.736E-002,4.233E-004,6.383E-004,0.500,1.000,0.000,0.000,0.000
 ZoneInfiltration Airflow Stats Nominal, G N1 APARTMENT_INFILTRATION,ZoneInfiltration:DesignFlowRate,INF_APT_SCH,G N1 APARTMENT,88.25,2.5,3.736E-002,4.233E-004,1.058E-003,0.500,1.000,0.000,0.000,0.000
 ZoneInfiltration Airflow Stats Nominal, G N2 APARTMENT_INFILTRATION,ZoneInfiltration:DesignFlowRate,INF_APT_SCH,G N2 APARTMENT,88.25,2.5,3.736E-002,4.233E-004,1.058E-003,0.500,1.000,0.000,0.000,0.000
 ZoneInfiltration Airflow Stats Nominal, G S1 APARTMENT_INFILTRATION,ZoneInfiltration:DesignFlowRate,INF_APT_SCH,G S1 APARTMENT,88.25,2.5,3.736E-002,4.233E-004,1.058E-003,0.500,1.000,0.000,0.000,0.000
 ZoneInfiltration Airflow Stats Nominal, G S2 APARTMENT_INFILTRATION,ZoneInfiltration:DesignFlowRate,INF_APT_SCH,G S2 APARTMENT,88.25,2.5,3.736E-002,4.233E-004,1.058E-003,0.500,1.000,0.000,0.000,0.000
 ZoneInfiltration Airflow Stats Nominal, G CORRIDOR_INFILTRATION,ZoneInfiltration:DesignFlowRate,INF_APT_SCH,G CORRIDOR,77.66,4.2,3.287E-002,4.233E-004,3.217E-003,0.500,1.000,0.000,0.000,0.000
 ZoneInfiltration Airflow Stats Nominal, DOOR_INFIL_GC,ZoneInfiltration:DesignFlowRate,INFIL_DOOR_OPENING_SCH,G CORRIDOR,77.66,4.2,3.287E-002,4.233E-004,3.217E-003,0.500,1.000,0.000,0.000,0.000
 ZoneInfiltration Airflow Stats Nominal, M SW APARTMENT_INFILTRATION,ZoneInfiltration:DesignFlowRate,INF_APT_SCH,M SW APARTMENT,88.25,2.5,3.736E-002,4.233E-004,6.383E-004,0.500,1.000,0.000,0.000,0.000
 ZoneInfiltration Airflow Stats Nominal, M NW APARTMENT_INFILTRATION,ZoneInfiltration:DesignFlowRate,INF_APT_SCH,M NW APARTMENT,88.25,2.5,3.736E-002,4.233E-004,6.383E-004,0.500,1.000,0.000,0.000,0.000
 ZoneInfiltration Airflow Stats Nominal, M SE APARTMENT_INFILTRATION,ZoneInfiltration:DesignFlowRate,INF_APT_SCH,M SE APARTMENT,88.25,2.5,3.736E-002,4.233E-004,6.383E-004,0.500,1.000,0.000,0.000,0.000
 ZoneInfiltration Airflow Stats Nominal, M NE APARTMENT_INFILTRATION,ZoneInfiltration:DesignFlowRate,INF_APT_SCH,M NE APARTMENT,88.25,2.5,3.736E-002,4.233E-004,6.383E-004,0.500,1.000,0.000,0.000,0.000
 ZoneInfiltration Airflow Stats Nominal, M N1 APARTMENT_INFILTRATION,ZoneInfiltration:DesignFlowRate,INF_APT_SCH,M N1 APARTMENT,88.25,2.5,3.736E-002,4.233E-004,1.058E-003,0.500,1.000,0.000,0.000,0.000
 ZoneInfiltration Airflow Stats Nominal, M N2 APARTMENT_INFILTRATION,ZoneInfiltration:DesignFlowRate,INF_APT_SCH,M N2 APARTMENT,88.25,2.5,3.736E-002,4.233E-004,1.058E-003,0.500,1.000,0.000,0.000,0.000
 ZoneInfiltration Airflow Stats Nominal, M S1 APARTMENT_INFILTRATION,ZoneInfiltration:DesignFlowRate,INF_APT_SCH,M S1 APARTMENT,88.25,2.5,3.736E-002,4.233E-004,1.058E-003,0.500,1.000,0.000,0.000,0.000
 ZoneInfiltration Airflow Stats Nominal, M S2 APARTMENT_INFILTRATION,ZoneInfiltration:DesignFlowRate,INF_APT_SCH,M S2 APARTMENT,88.25,2.5,3.736E-002,4.233E-004,1.058E-003,0.500,1.000,0.000,0.000,0.000
 ZoneInfiltration Airflow Stats Nominal, M CORRIDOR_INFILTRATION,ZoneInfiltration:DesignFlowRate,INF_APT_SCH,M CORRIDOR,77.66,4.2,3.287E-002,4.233E-004,3.217E-003,0.500,1.000,0.000,0.000,0.000
 ZoneInfiltration Airflow Stats Nominal, T SW APARTMENT_INFILTRATION,ZoneInfiltration:DesignFlowRate,INF_APT_SCH,T SW APARTMENT,88.25,2.5,3.736E-002,4.233E-004,2.545E-004,0.500,1.000,0.000,0.000,0.000
 ZoneInfiltration Airflow Stats Nominal, T NW APARTMENT_INFILTRATION,ZoneInfiltration:DesignFlowRate,INF_APT_SCH,T NW APARTMENT,88.25,2.5,3.736E-002,4.233E-004,2.545E-004,0.500,1.000,0.000,0.000,0.000
 ZoneInfiltration Airflow Stats Nominal, T SE APARTMENT_INFILTRATION,ZoneInfiltration:DesignFlowRate,INF_APT_SCH,T SE APARTMENT,88.25,2.5,3.736E-002,4.233E-004,2.545E-004,0.500,1.000,0.000,0.000,0.000
 ZoneInfiltration Airflow Stats Nominal, T NE APARTMENT_INFILTRATION,ZoneInfiltration:DesignFlowRate,INF_APT_SCH,T NE APARTMENT,88.25,2.5,3.736E-002,4.233E-004,2.545E-004,0.500,1.000,0.000,0.000,0.000
 ZoneInfiltration Airflow Stats Nominal, T N1 APARTMENT_INFILTRATION,ZoneInfiltration:DesignFlowRate,INF_APT_SCH,T N1 APARTMENT,88.25,2.5,3.736E-002,4.233E-004,3.024E-004,0.500,1.000,0.000,0.000,0.000
 ZoneInfiltration Airflow Stats Nominal, T N2 APARTMENT_INFILTRATION,ZoneInfiltration:DesignFlowRate,INF_APT_SCH,T N2 APARTMENT,88.25,2.5,3.736E-002,4.233E-004,3.024E-004,0.500,1.000,0.000,0.000,0.000
 ZoneInfiltration Airflow Stats Nominal, T S1 APARTMENT_INFILTRATION,ZoneInfiltration:DesignFlowRate,INF_APT_SCH,T S1 APARTMENT,88.25,2.5,3.736E-002,4.233E-004,3.024E-004,0.500,1.000,0.000,0.000,0.000
 ZoneInfiltration Airflow Stats Nominal, T S2 APARTMENT_INFILTRATION,ZoneInfiltration:DesignFlowRate,INF_APT_SCH,T S2 APARTMENT,88.25,2.5,3.736E-002,4.233E-004,3.024E-004,0.500,1.000,0.000,0.000,0.000
 ZoneInfiltration Airflow Stats Nominal, T CORRIDOR_INFILTRATION,ZoneInfiltration:DesignFlowRate,INF_APT_SCH,T CORRIDOR,77.66,4.2,3.287E-002,4.233E-004,3.741E-004,0.500,1.000,0.000,0.000,0.000
! <ZoneVentilation Airflow Stats Nominal>,Name,Input Object, Schedule Name,Zone Name, Zone Floor Area {m2}, # Zone Occupants,Design Volume Flow Rate {m3/s},Volume Flow Rate/Floor Area {m3/s-m2},Volume Flow Rate/person Area {m3/s-person},ACH - Air Changes per Hour,Fan Type {Exhaust;Intake;Natural},Fan Pressure Rise {Pa},Fan Efficiency {},Equation A - Constant Term Coefficient {},Equation B - Temperature Term Coefficient {1/C},Equation C - Velocity Term Coefficient {s/m}, Equation D - Velocity Squared Term Coefficient {s2/m2},Minimum Indoor Temperature{C}/Schedule,Maximum Indoor Temperature{C}/Schedule,Delta Temperature{C}/Schedule,Minimum Outdoor Temperature{C}/Schedule,Maximum Outdoor Temperature{C}/Schedule,Maximum WindSpeed{m/s}
 ZoneVentilation Airflow Stats Nominal, G SW APARTMENT SLIDING DOOR VENTILATION,ZoneVentilation:WindandStackOpenArea,Constant-1.0,G SW APARTMENT,88.25,2.5,0.000,0.000,0.000,0.000,Natural,0.000,0.0,0.000,0.000,0.000,0.000,18.89,25.56,-100.00,15.56,23.89,40.00
 ZoneVentilation Airflow Stats Nominal, G NW APARTMENT SLIDING DOOR VENTILATION,ZoneVentilation:WindandStackOpenArea,Constant-1.0,G NW APARTMENT,88.25,2.5,0.000,0.000,0.000,0.000,Natural,0.000,0.0,0.000,0.000,0.000,0.000,18.89,25.56,-100.00,15.56,23.89,40.00
 ZoneVentilation Airflow Stats Nominal, G NE APARTMENT SLIDING DOOR VENTILATION,ZoneVentilation:WindandStackOpenArea,Constant-1.0,G NE APARTMENT,88.25,2.5,0.000,0.000,0.000,0.000,Natural,0.000,0.0,0.000,0.000,0.000,0.000,18.89,25.56,-100.00,15.56,23.89,40.00
 ZoneVentilation Airflow Stats Nominal, G N1 APARTMENT SLIDING DOOR VENTILATION,ZoneVentilation:WindandStackOpenArea,Constant-1.0,G N1 APARTMENT,88.25,2.5,0.000,0.000,0.000,0.000,Natural,0.000,0.0,0.000,0.000,0.000,0.000,18.89,25.56,-100.00,15.56,23.89,40.00
 ZoneVentilation Airflow Stats Nominal, G N2 APARTMENT SLIDING DOOR VENTILATION,ZoneVentilation:WindandStackOpenArea,Constant-1.0,G N2 APARTMENT,88.25,2.5,0.000,0.000,0.000,0.000,Natural,0.000,0.0,0.000,0.000,0.000,0.000,18.89,25.56,-100.00,15.56,23.89,40.00
 ZoneVentilation Airflow Stats Nominal, G S1 APARTMENT SLIDING DOOR VENTILATION,ZoneVentilation:WindandStackOpenArea,Constant-1.0,G S1 APARTMENT,88.25,2.5,0.000,0.000,0.000,0.000,Natural,0.000,0.0,0.000,0.000,0.000,0.000,18.89,25.56,-100.00,15.56,23.89,40.00
 ZoneVentilation Airflow Stats Nominal, G S2 APARTMENT SLIDING DOOR VENTILATION,ZoneVentilation:WindandStackOpenArea,Constant-1.0,G S2 APARTMENT,88.25,2.5,0.000,0.000,0.000,0.000,Natural,0.000,0.0,0.000,0.000,0.000,0.000,18.89,25.56,-100.00,15.56,23.89,40.00
 ZoneVentilation Airflow Stats Nominal, M SW APARTMENT SLIDING DOOR VENTILATION,ZoneVentilation:WindandStackOpenArea,Constant-1.0,M SW APARTMENT,88.25,2.5,0.000,0.000,0.000,0.000,Natural,0.000,0.0,0.000,0.000,0.000,0.000,18.89,25.56,-100.00,15.56,23.89,40.00
 ZoneVentilation Airflow Stats Nominal, M NW APARTMENT SLIDING DOOR VENTILATION,ZoneVentilation:WindandStackOpenArea,Constant-1.0,M NW APARTMENT,88.25,2.5,0.000,0.000,0.000,0.000,Natural,0.000,0.0,0.000,0.000,0.000,0.000,18.89,25.56,-100.00,15.56,23.89,40.00
 ZoneVentilation Airflow Stats Nominal, M SE APARTMENT SLIDING DOOR VENTILATION,ZoneVentilation:WindandStackOpenArea,Constant-1.0,M SE APARTMENT,88.25,2.5,0.000,0.000,0.000,0.000,Natural,0.000,0.0,0.000,0.000,0.000,0.000,18.89,25.56,-100.00,15.56,23.89,40.00
 ZoneVentilation Airflow Stats Nominal, M NE APARTMENT SLIDING DOOR VENTILATION,ZoneVentilation:WindandStackOpenArea,Constant-1.0,M NE APARTMENT,88.25,2.5,0.000,0.000,0.000,0.000,Natural,0.000,0.0,0.000,0.000,0.000,0.000,18.89,25.56,-100.00,15.56,23.89,40.00
 ZoneVentilation Airflow Stats Nominal, M N1 APARTMENT SLIDING DOOR VENTILATION,ZoneVentilation:WindandStackOpenArea,Constant-1.0,M N1 APARTMENT,88.25,2.5,0.000,0.000,0.000,0.000,Natural,0.000,0.0,0.000,0.000,0.000,0.000,18.89,25.56,-100.00,15.56,23.89,40.00
 ZoneVentilation Airflow Stats Nominal, M N2 APARTMENT SLIDING DOOR VENTILATION,ZoneVentilation:WindandStackOpenArea,Constant-1.0,M N2 APARTMENT,88.25,2.5,0.000,0.000,0.000,0.000,Natural,0.000,0.0,0.000,0.000,0.000,0.000,18.89,25.56,-100.00,15.56,23.89,40.00
 ZoneVentilation Airflow Stats Nominal, M S1 APARTMENT SLIDING DOOR VENTILATION,ZoneVentilation:WindandStackOpenArea,Constant-1.0,M S1 APARTMENT,88.25,2.5,0.000,0.000,0.000,0.000,Natural,0.000,0.0,0.000,0.000,0.000,0.000,18.89,25.56,-100.00,15.56,23.89,40.00
 ZoneVentilation Airflow Stats Nominal, M S2 APARTMENT SLIDING DOOR VENTILATION,ZoneVentilation:WindandStackOpenArea,Constant-1.0,M S2 APARTMENT,88.25,2.5,0.000,0.000,0.000,0.000,Natural,0.000,0.0,0.000,0.000,0.000,0.000,18.89,25.56,-100.00,15.56,23.89,40.00
 ZoneVentilation Airflow Stats Nominal, T SW APARTMENT SLIDING DOOR VENTILATION,ZoneVentilation:WindandStackOpenArea,Constant-1.0,T SW APARTMENT,88.25,2.5,0.000,0.000,0.000,0.000,Natural,0.000,0.0,0.000,0.000,0.000,0.000,18.89,25.56,-100.00,15.56,23.89,40.00
 ZoneVentilation Airflow Stats Nominal, T NW APARTMENT SLIDING DOOR VENTILATION,ZoneVentilation:WindandStackOpenArea,Constant-1.0,T NW APARTMENT,88.25,2.5,0.000,0.000,0.000,0.000,Natural,0.000,0.0,0.000,0.000,0.000,0.000,18.89,25.56,-100.00,15.56,23.89,40.00
 ZoneVentilation Airflow Stats Nominal, T SE APARTMENT SLIDING DOOR VENTILATION,ZoneVentilation:WindandStackOpenArea,Constant-1.0,T SE APARTMENT,88.25,2.5,0.000,0.000,0.000,0.000,Natural,0.000,0.0,0.000,0.000,0.000,0.000,18.89,25.56,-100.00,15.56,23.89,40.00
 ZoneVentilation Airflow Stats Nominal, T NE APARTMENT SLIDING DOOR VENTILATION,ZoneVentilation:WindandStackOpenArea,Constant-1.0,T NE APARTMENT,88.25,2.5,0.000,0.000,0.000,0.000,Natural,0.000,0.0,0.000,0.000,0.000,0.000,18.89,25.56,-100.00,15.56,23.89,40.00
 ZoneVentilation Airflow Stats Nominal, T N1 APARTMENT SLIDING DOOR VENTILATION,ZoneVentilation:WindandStackOpenArea,Constant-1.0,T N1 APARTMENT,88.25,2.5,0.000,0.000,0.000,0.000,Natural,0.000,0.0,0.000,0.000,0.000,0.000,18.89,25.56,-100.00,15.56,23.89,40.00
 ZoneVentilation Airflow Stats Nominal, T N2 APARTMENT SLIDING DOOR VENTILATION,ZoneVentilation:WindandStackOpenArea,Constant-1.0,T N2 APARTMENT,88.25,2.5,0.000,0.000,0.000,0.000,Natural,0.000,0.0,0.000,0.000,0.000,0.000,18.89,25.56,-100.00,15.56,23.89,40.00
 ZoneVentilation Airflow Stats Nominal, T S1 APARTMENT SLIDING DOOR VENTILATION,ZoneVentilation:WindandStackOpenArea,Constant-1.0,T S1 APARTMENT,88.25,2.5,0.000,0.000,0.000,0.000,Natural,0.000,0.0,0.000,0.000,0.000,0.000,18.89,25.56,-100.00,15.56,23.89,40.00
 ZoneVentilation Airflow Stats Nominal, T S2 APARTMENT SLIDING DOOR VENTILATION,ZoneVentilation:WindandStackOpenArea,Constant-1.0,T S2 APARTMENT,88.25,2.5,0.000,0.000,0.000,0.000,Natural,0.000,0.0,0.000,0.000,0.000,0.000,18.89,25.56,-100.00,15.56,23.89,40.00
! <AirFlow Model>, Simple
 AirFlow Model, Simple
! <RoomAir Model>, Zone Name, Mixing/Mundt/UCSDDV/UCSDCV/UCSDUFI/UCSDUFE/User Defined
RoomAir Model,G SW APARTMENT,Mixing/Well-Stirred
RoomAir Model,G NW APARTMENT,Mixing/Well-Stirred
RoomAir Model,OFFICE,Mixing/Well-Stirred
RoomAir Model,G NE APARTMENT,Mixing/Well-Stirred
RoomAir Model,G N1 APARTMENT,Mixing/Well-Stirred
RoomAir Model,G N2 APARTMENT,Mixing/Well-Stirred
RoomAir Model,G S1 APARTMENT,Mixing/Well-Stirred
RoomAir Model,G S2 APARTMENT,Mixing/Well-Stirred
RoomAir Model,G CORRIDOR,Mixing/Well-Stirred
RoomAir Model,M SW APARTMENT,Mixing/Well-Stirred
RoomAir Model,M NW APARTMENT,Mixing/Well-Stirred
RoomAir Model,M SE APARTMENT,Mixing/Well-Stirred
RoomAir Model,M NE APARTMENT,Mixing/Well-Stirred
RoomAir Model,M N1 APARTMENT,Mixing/Well-Stirred
RoomAir Model,M N2 APARTMENT,Mixing/Well-Stirred
RoomAir Model,M S1 APARTMENT,Mixing/Well-Stirred
RoomAir Model,M S2 APARTMENT,Mixing/Well-Stirred
RoomAir Model,M CORRIDOR,Mixing/Well-Stirred
RoomAir Model,T SW APARTMENT,Mixing/Well-Stirred
RoomAir Model,T NW APARTMENT,Mixing/Well-Stirred
RoomAir Model,T SE APARTMENT,Mixing/Well-Stirred
RoomAir Model,T NE APARTMENT,Mixing/Well-Stirred
RoomAir Model,T N1 APARTMENT,Mixing/Well-Stirred
RoomAir Model,T N2 APARTMENT,Mixing/Well-Stirred
RoomAir Model,T S1 APARTMENT,Mixing/Well-Stirred
RoomAir Model,T S2 APARTMENT,Mixing/Well-Stirred
RoomAir Model,T CORRIDOR,Mixing/Well-Stirred
! <AirflowNetwork Model:Control>, No Multizone or Distribution/Multizone with Distribution/Multizone without Distribution/Multizone with Distribution only during Fan Operation
AirflowNetwork Model:Control,NoMultizoneOrDistribution
! <Zone Volume Capacitance Multiplier>, Sensible Heat Capacity Multiplier, Moisture Capacity Multiplier, Carbon Dioxide Capacity Multiplier, Generic Contaminant Capacity Multiplier
Zone Volume Capacitance Multiplier,   1.000 ,   1.000,   1.000,   1.000
! <Load Timesteps in Zone Design Calculation Averaging Window>, Value
 Load Timesteps in Zone Design Calculation Averaging Window,    6
! <Heating Sizing Factor Information>, Sizing Factor ID, Value
 Heating Sizing Factor Information, Global,          1.2
 Heating Sizing Factor Information, Zone G SW APARTMENT,          1.2
 Heating Sizing Factor Information, Zone G NW APARTMENT,          1.2
 Heating Sizing Factor Information, Zone OFFICE,          1.2
 Heating Sizing Factor Information, Zone G NE APARTMENT,          1.2
 Heating Sizing Factor Information, Zone G N1 APARTMENT,          1.2
 Heating Sizing Factor Information, Zone G N2 APARTMENT,          1.2
 Heating Sizing Factor Information, Zone G S1 APARTMENT,          1.2
 Heating Sizing Factor Information, Zone G S2 APARTMENT,          1.2
 Heating Sizing Factor Information, Zone M SW APARTMENT,          1.2
 Heating Sizing Factor Information, Zone M NW APARTMENT,          1.2
 Heating Sizing Factor Information, Zone M SE APARTMENT,          1.2
 Heating Sizing Factor Information, Zone M NE APARTMENT,          1.2
 Heating Sizing Factor Information, Zone M N1 APARTMENT,          1.2
 Heating Sizing Factor Information, Zone M N2 APARTMENT,          1.2
 Heating Sizing Factor Information, Zone M S1 APARTMENT,          1.2
 Heating Sizing Factor Information, Zone M S2 APARTMENT,          1.2
 Heating Sizing Factor Information, Zone T SW APARTMENT,          1.2
 Heating Sizing Factor Information, Zone T NW APARTMENT,          1.2
 Heating Sizing Factor Information, Zone T SE APARTMENT,          1.2
 Heating Sizing Factor Information, Zone T NE APARTMENT,          1.2
 Heating Sizing Factor Information, Zone T N1 APARTMENT,          1.2
 Heating Sizing Factor Information, Zone T N2 APARTMENT,          1.2
 Heating Sizing Factor Information, Zone T S1 APARTMENT,          1.2
 Heating Sizing Factor Information, Zone T S2 APARTMENT,          1.2
! <Cooling Sizing Factor Information>, Sizing Factor ID, Value
 Cooling Sizing Factor Information, Global,          1.2
 Cooling Sizing Factor Information, Zone G SW APARTMENT,          1.2
 Cooling Sizing Factor Information, Zone G NW APARTMENT,          1.2
 Cooling Sizing Factor Information, Zone OFFICE,          1.2
 Cooling Sizing Factor Information, Zone G NE APARTMENT,          1.2
 Cooling Sizing Factor Information, Zone G N1 APARTMENT,          1.2
 Cooling Sizing Factor Information, Zone G N2 APARTMENT,          1.2
 Cooling Sizing Factor Information, Zone G S1 APARTMENT,          1.2
 Cooling Sizing Factor Information, Zone G S2 APARTMENT,          1.2
 Cooling Sizing Factor Information, Zone M SW APARTMENT,          1.2
 Cooling Sizing Factor Information, Zone M NW APARTMENT,          1.2
 Cooling Sizing Factor Information, Zone M SE APARTMENT,          1.2
 Cooling Sizing Factor Information, Zone M NE APARTMENT,          1.2
 Cooling Sizing Factor Information, Zone M N1 APARTMENT,          1.2
 Cooling Sizing Factor Information, Zone M N2 APARTMENT,          1.2
 Cooling Sizing Factor Information, Zone M S1 APARTMENT,          1.2
 Cooling Sizing Factor Information, Zone M S2 APARTMENT,          1.2
 Cooling Sizing Factor Information, Zone T SW APARTMENT,          1.2
 Cooling Sizing Factor Information, Zone T NW APARTMENT,          1.2
 Cooling Sizing Factor Information, Zone T SE APARTMENT,          1.2
 Cooling Sizing Factor Information, Zone T NE APARTMENT,          1.2
 Cooling Sizing Factor Information, Zone T N1 APARTMENT,          1.2
 Cooling Sizing Factor Information, Zone T N2 APARTMENT,          1.2
 Cooling Sizing Factor Information, Zone T S1 APARTMENT,          1.2
 Cooling Sizing Factor Information, Zone T S2 APARTMENT,          1.2
! <Zone Sizing Information>, Zone Name, Load Type, Calc Des Load {W}, User Des Load {W}, Calc Des Air Flow Rate {m3/s}, User Des Air Flow Rate {m3/s}, Design Day Name, Date/Time of Peak, Temperature at Peak {C}, Humidity Ratio at Peak {kgWater/kgDryAir}, Floor Area {m2}, # Occupants, Calc Outdoor Air Flow Rate {m3/s}, Calc DOAS Heat Addition Rate {W}
 Zone Sizing Information, G SW APARTMENT, Cooling, 3725.15045, 4470.18054, 0.28773, 0.34528, ATLANTA-HARTSFIELD.JACKSON.INTL.AP_GA_USA ANN CLG .4% CONDNS DB=>MWB, 7/21 19:00:00, 30.69500, 1.44665E-002, 88.24868, 2.50000, 2.59544E-002, 0.00000
 Zone Sizing Information, G SW APARTMENT, Heating, 2905.47441, 3486.56929, 0.13111, 0.15733, ATLANTA-HARTSFIELD.JACKSON.INTL.AP_GA_USA ANN HTG 99.6% CONDNS DB, 1/21 05:00:00, -6.30000, 2.29779E-003, 88.24868, 2.50000, 2.59544E-002, 0.00000
 Zone Sizing Information, G NW APARTMENT, Cooling, 3803.02241, 4563.62689, 0.29386, 0.35264, ATLANTA-HARTSFIELD.JACKSON.INTL.AP_GA_USA ANN CLG .4% CONDNS DB=>MWB, 7/21 19:00:00, 30.69500, 1.44665E-002, 88.24868, 2.50000, 2.59544E-002, 0.00000
 Zone Sizing Information, G NW APARTMENT, Heating, 2764.26885, 3317.12262, 0.12474, 0.14969, ATLANTA-HARTSFIELD.JACKSON.INTL.AP_GA_USA ANN HTG 99.6% CONDNS DB, 1/21 15:00:00, -6.30000, 2.29779E-003, 88.24868, 2.50000, 2.59544E-002, 0.00000
 Zone Sizing Information, OFFICE, Cooling, 3863.34763, 4636.01716, 0.32241, 0.38689, ATLANTA-HARTSFIELD.JACKSON.INTL.AP_GA_USA ANN CLG .4% CONDNS DB=>MWB, 7/21 11:10:00, 32.37333, 1.44696E-002, 88.24868, 4.74950, 3.81058E-002, 0.00000
 Zone Sizing Information, OFFICE, Heating, 2917.69422, 3501.23306, 0.12749, 0.15298, ATLANTA-HARTSFIELD.JACKSON.INTL.AP_GA_USA ANN HTG 99.6% CONDNS DB, 1/21 18:40:00, -6.30000, 2.29779E-003, 88.24868, 4.74950, 3.81058E-002, 0.00000
 Zone Sizing Information, G NE APARTMENT, Cooling, 3468.50475, 4162.20570, 0.26748, 0.32098, ATLANTA-HARTSFIELD.JACKSON.INTL.AP_GA_USA ANN CLG .4% CONDNS DB=>MWB, 7/21 19:00:00, 30.69500, 1.44665E-002, 88.24868, 2.50000, 2.59544E-002, 0.00000
 Zone Sizing Information, G NE APARTMENT, Heating, 2764.60343, 3317.52412, 0.12475, 0.14970, ATLANTA-HARTSFIELD.JACKSON.INTL.AP_GA_USA ANN HTG 99.6% CONDNS DB, 1/21 15:00:00, -6.30000, 2.29779E-003, 88.24868, 2.50000, 2.59544E-002, 0.00000
 Zone Sizing Information, G N1 APARTMENT, Cooling, 3068.70713, 3682.44856, 0.23582, 0.28298, ATLANTA-HARTSFIELD.JACKSON.INTL.AP_GA_USA ANN CLG .4% CONDNS DB=>MWB, 7/21 19:00:00, 30.69500, 1.44665E-002, 88.24868, 2.50000, 2.59544E-002, 0.00000
 Zone Sizing Information, G N1 APARTMENT, Heating, 2183.17511, 2619.81013, 9.85169E-002, 0.11822, ATLANTA-HARTSFIELD.JACKSON.INTL.AP_GA_USA ANN HTG 99.6% CONDNS DB, 1/21 15:00:00, -6.30000, 2.29779E-003, 88.24868, 2.50000, 2.59544E-002, 0.00000
 Zone Sizing Information, G N2 APARTMENT, Cooling, 3058.94409, 3670.73291, 0.23505, 0.28206, ATLANTA-HARTSFIELD.JACKSON.INTL.AP_GA_USA ANN CLG .4% CONDNS DB=>MWB, 7/21 19:00:00, 30.69500, 1.44665E-002, 88.24868, 2.50000, 2.59544E-002, 0.00000
 Zone Sizing Information, G N2 APARTMENT, Heating, 2183.18895, 2619.82674, 9.85175E-002, 0.11822, ATLANTA-HARTSFIELD.JACKSON.INTL.AP_GA_USA ANN HTG 99.6% CONDNS DB, 1/21 15:00:00, -6.30000, 2.29779E-003, 88.24868, 2.50000, 2.59544E-002, 0.00000
 Zone Sizing Information, G S1 APARTMENT, Cooling, 2976.50344, 3571.80413, 0.22859, 0.27431, ATLANTA-HARTSFIELD.JACKSON.INTL.AP_GA_USA ANN CLG .4% CONDNS DB=>MWB, 7/21 19:00:00, 30.69500, 1.44665E-002, 88.24868, 2.50000, 2.59544E-002, 0.00000
 Zone Sizing Information, G S1 APARTMENT, Heating, 2325.13732, 2790.16478, 0.10492, 0.12591, ATLANTA-HARTSFIELD.JACKSON.INTL.AP_GA_USA ANN HTG 99.6% CONDNS DB, 1/21 05:00:00, -6.30000, 2.29779E-003, 88.24868, 2.50000, 2.59544E-002, 0.00000
 Zone Sizing Information, G S2 APARTMENT, Cooling, 2961.17126, 3553.40551, 0.22740, 0.27288, ATLANTA-HARTSFIELD.JACKSON.INTL.AP_GA_USA ANN CLG .4% CONDNS DB=>MWB, 7/21 19:00:00, 30.69500, 1.44665E-002, 88.24868, 2.50000, 2.59544E-002, 0.00000
 Zone Sizing Information, G S2 APARTMENT, Heating, 2351.58297, 2821.89957, 0.10612, 0.12734, ATLANTA-HARTSFIELD.JACKSON.INTL.AP_GA_USA ANN HTG 99.6% CONDNS DB, 1/21 05:00:00, -6.30000, 2.29779E-003, 88.24868, 2.50000, 2.59544E-002, 0.00000
 Zone Sizing Information, M SW APARTMENT, Cooling, 36445.94003, 43735.12804, 2.82495, 3.38994, ATLANTA-HARTSFIELD.JACKSON.INTL.AP_GA_USA ANN CLG .4% CONDNS DB=>MWB, 7/21 19:00:00, 30.69500, 1.44665E-002, 705.98947, 20.00000, 0.20764, 0.00000
 Zone Sizing Information, M SW APARTMENT, Heating, 23173.22090, 27807.86508, 1.04571, 1.25485, ATLANTA-HARTSFIELD.JACKSON.INTL.AP_GA_USA ANN HTG 99.6% CONDNS DB, 1/21 05:00:00, -6.30000, 2.29779E-003, 705.98947, 20.00000, 0.20764, 0.00000
 Zone Sizing Information, M NW APARTMENT, Cooling, 37223.52623, 44668.23147, 2.88638, 3.46365, ATLANTA-HARTSFIELD.JACKSON.INTL.AP_GA_USA ANN CLG .4% CONDNS DB=>MWB, 7/21 19:00:00, 30.69500, 1.44665E-002, 705.98947, 20.00000, 0.20764, 0.00000
 Zone Sizing Information, M NW APARTMENT, Heating, 22037.87497, 26445.44996, 0.99448, 1.19338, ATLANTA-HARTSFIELD.JACKSON.INTL.AP_GA_USA ANN HTG 99.6% CONDNS DB, 1/21 15:00:00, -6.30000, 2.29779E-003, 705.98947, 20.00000, 0.20764, 0.00000
 Zone Sizing Information, M SE APARTMENT, Cooling, 31547.01475, 37856.41770, 2.43925, 2.92711, ATLANTA-HARTSFIELD.JACKSON.INTL.AP_GA_USA ANN CLG .4% CONDNS DB=>MWB, 7/21 19:00:00, 30.69500, 1.44665E-002, 705.98947, 20.00000, 0.20764, 0.00000
 Zone Sizing Information, M SE APARTMENT, Heating, 23131.50320, 27757.80383, 1.04382, 1.25259, ATLANTA-HARTSFIELD.JACKSON.INTL.AP_GA_USA ANN HTG 99.6% CONDNS DB, 1/21 05:00:00, -6.30000, 2.29779E-003, 705.98947, 20.00000, 0.20764, 0.00000
 Zone Sizing Information, M NE APARTMENT, Cooling, 32551.09840, 39061.31808, 2.51806, 3.02168, ATLANTA-HARTSFIELD.JACKSON.INTL.AP_GA_USA ANN CLG .4% CONDNS DB=>MWB, 7/21 19:00:00, 30.69500, 1.44665E-002, 705.98947, 20.00000, 0.20764, 0.00000
 Zone Sizing Information, M NE APARTMENT, Heating, 21996.13525, 26395.36230, 0.99260, 1.19112, ATLANTA-HARTSFIELD.JACKSON.INTL.AP_GA_USA ANN HTG 99.6% CONDNS DB, 1/21 15:00:00, -6.30000, 2.29779E-003, 705.98947, 20.00000, 0.20764, 0.00000
 Zone Sizing Information, M N1 APARTMENT, Cooling, 29336.47026, 35203.76431, 2.26529, 2.71835, ATLANTA-HARTSFIELD.JACKSON.INTL.AP_GA_USA ANN CLG .4% CONDNS DB=>MWB, 7/21 19:00:00, 30.69500, 1.44665E-002, 705.98947, 20.00000, 0.20764, 0.00000
 Zone Sizing Information, M N1 APARTMENT, Heating, 17219.46930, 20663.36316, 0.77705, 0.93246, ATLANTA-HARTSFIELD.JACKSON.INTL.AP_GA_USA ANN HTG 99.6% CONDNS DB, 1/21 15:00:00, -6.30000, 2.29779E-003, 705.98947, 20.00000, 0.20764, 0.00000
 Zone Sizing Information, M N2 APARTMENT, Cooling, 29214.17894, 35057.01473, 2.25564, 2.70677, ATLANTA-HARTSFIELD.JACKSON.INTL.AP_GA_USA ANN CLG .4% CONDNS DB=>MWB, 7/21 19:00:00, 30.69500, 1.44665E-002, 705.98947, 20.00000, 0.20764, 0.00000
 Zone Sizing Information, M N2 APARTMENT, Heating, 17218.43498, 20662.12198, 0.77700, 0.93240, ATLANTA-HARTSFIELD.JACKSON.INTL.AP_GA_USA ANN HTG 99.6% CONDNS DB, 1/21 15:00:00, -6.30000, 2.29779E-003, 705.98947, 20.00000, 0.20764, 0.00000
 Zone Sizing Information, M S1 APARTMENT, Cooling, 28401.35774, 34081.62929, 2.19151, 2.62982, ATLANTA-HARTSFIELD.JACKSON.INTL.AP_GA_USA ANN CLG .4% CONDNS DB=>MWB, 7/21 19:00:00, 30.69500, 1.44665E-002, 705.98947, 20.00000, 0.20764, 0.00000
 Zone Sizing Information, M S1 APARTMENT, Heating, 18346.03610, 22015.24332, 0.82788, 0.99346, ATLANTA-HARTSFIELD.JACKSON.INTL.AP_GA_USA ANN HTG 99.6% CONDNS DB, 1/21 05:00:00, -6.30000, 2.29779E-003, 705.98947, 20.00000, 0.20764, 0.00000
 Zone Sizing Information, M S2 APARTMENT, Cooling, 28274.73184, 33929.67820, 2.18151, 2.61781, ATLANTA-HARTSFIELD.JACKSON.INTL.AP_GA_USA ANN CLG .4% CONDNS DB=>MWB, 7/21 19:00:00, 30.69500, 1.44665E-002, 705.98947, 20.00000, 0.20764, 0.00000
 Zone Sizing Information, M S2 APARTMENT, Heating, 18345.00220, 22014.00264, 0.82783, 0.99340, ATLANTA-HARTSFIELD.JACKSON.INTL.AP_GA_USA ANN HTG 99.6% CONDNS DB, 1/21 05:00:00, -6.30000, 2.29779E-003, 705.98947, 20.00000, 0.20764, 0.00000
 Zone Sizing Information, T SW APARTMENT, Cooling, 5056.17826, 6067.41391, 0.39240, 0.47088, ATLANTA-HARTSFIELD.JACKSON.INTL.AP_GA_USA ANN CLG .4% CONDNS DB=>MWB, 7/21 19:00:00, 30.69500, 1.44665E-002, 88.24868, 2.50000, 2.59544E-002, 0.00000
 Zone Sizing Information, T SW APARTMENT, Heating, 3994.79063, 4793.74875, 0.18026, 0.21632, ATLANTA-HARTSFIELD.JACKSON.INTL.AP_GA_USA ANN HTG 99.6% CONDNS DB, 1/21 05:00:00, -6.30000, 2.29779E-003, 88.24868, 2.50000, 2.59544E-002, 0.00000
 Zone Sizing Information, T NW APARTMENT, Cooling, 5207.75693, 6249.30832, 0.40434, 0.48521, ATLANTA-HARTSFIELD.JACKSON.INTL.AP_GA_USA ANN CLG .4% CONDNS DB=>MWB, 7/21 19:00:00, 30.69500, 1.44665E-002, 88.24868, 2.50000, 2.59544E-002, 0.00000
 Zone Sizing Information, T NW APARTMENT, Heating, 3849.50033, 4619.40039, 0.17371, 0.20845, ATLANTA-HARTSFIELD.JACKSON.INTL.AP_GA_USA ANN HTG 99.6% CONDNS DB, 1/21 15:00:00, -6.30000, 2.29779E-003, 88.24868, 2.50000, 2.59544E-002, 0.00000
 Zone Sizing Information, T SE APARTMENT, Cooling, 4249.50268, 5099.40321, 0.32877, 0.39453, ATLANTA-HARTSFIELD.JACKSON.INTL.AP_GA_USA ANN CLG .4% CONDNS DB=>MWB, 7/21 19:00:00, 30.69500, 1.44665E-002, 88.24868, 2.50000, 2.59544E-002, 0.00000
 Zone Sizing Information, T SE APARTMENT, Heating, 3987.72232, 4785.26678, 0.17995, 0.21593, ATLANTA-HARTSFIELD.JACKSON.INTL.AP_GA_USA ANN HTG 99.6% CONDNS DB, 1/21 05:00:00, -6.30000, 2.29779E-003, 88.24868, 2.50000, 2.59544E-002, 0.00000
 Zone Sizing Information, T NE APARTMENT, Cooling, 4433.23397, 5319.88076, 0.34329, 0.41195, ATLANTA-HARTSFIELD.JACKSON.INTL.AP_GA_USA ANN CLG .4% CONDNS DB=>MWB, 7/21 19:00:00, 30.69500, 1.44665E-002, 88.24868, 2.50000, 2.59544E-002, 0.00000
 Zone Sizing Information, T NE APARTMENT, Heating, 3842.42006, 4610.90407, 0.17339, 0.20807, ATLANTA-HARTSFIELD.JACKSON.INTL.AP_GA_USA ANN HTG 99.6% CONDNS DB, 1/21 15:00:00, -6.30000, 2.29779E-003, 88.24868, 2.50000, 2.59544E-002, 0.00000
 Zone Sizing Information, T N1 APARTMENT, Cooling, 4316.01837, 5179.22204, 0.33405, 0.40086, ATLANTA-HARTSFIELD.JACKSON.INTL.AP_GA_USA ANN CLG .4% CONDNS DB=>MWB, 7/21 19:00:00, 30.69500, 1.44665E-002, 88.24868, 2.50000, 2.59544E-002, 0.00000
 Zone Sizing Information, T N1 APARTMENT, Heating, 3266.11230, 3919.33476, 0.14738, 0.17686, ATLANTA-HARTSFIELD.JACKSON.INTL.AP_GA_USA ANN HTG 99.6% CONDNS DB, 1/21 15:00:00, -6.30000, 2.29779E-003, 88.24868, 2.50000, 2.59544E-002, 0.00000
 Zone Sizing Information, T N2 APARTMENT, Cooling, 4280.70342, 5136.84410, 0.33126, 0.39751, ATLANTA-HARTSFIELD.JACKSON.INTL.AP_GA_USA ANN CLG .4% CONDNS DB=>MWB, 7/21 19:00:00, 30.69500, 1.44665E-002, 88.24868, 2.50000, 2.59544E-002, 0.00000
 Zone Sizing Information, T N2 APARTMENT, Heating, 3265.92475, 3919.10970, 0.14738, 0.17685, ATLANTA-HARTSFIELD.JACKSON.INTL.AP_GA_USA ANN HTG 99.6% CONDNS DB, 1/21 15:00:00, -6.30000, 2.29779E-003, 88.24868, 2.50000, 2.59544E-002, 0.00000
 Zone Sizing Information, T S1 APARTMENT, Cooling, 4137.66784, 4965.20141, 0.31995, 0.38394, ATLANTA-HARTSFIELD.JACKSON.INTL.AP_GA_USA ANN CLG .4% CONDNS DB=>MWB, 7/21 19:00:00, 30.69500, 1.44665E-002, 88.24868, 2.50000, 2.59544E-002, 0.00000
 Zone Sizing Information, T S1 APARTMENT, Heating, 3411.15486, 4093.38583, 0.15393, 0.18471, ATLANTA-HARTSFIELD.JACKSON.INTL.AP_GA_USA ANN HTG 99.6% CONDNS DB, 1/21 05:00:00, -6.30000, 2.29779E-003, 88.24868, 2.50000, 2.59544E-002, 0.00000
 Zone Sizing Information, T S2 APARTMENT, Cooling, 4101.52772, 4921.83326, 0.31709, 0.38051, ATLANTA-HARTSFIELD.JACKSON.INTL.AP_GA_USA ANN CLG .4% CONDNS DB=>MWB, 7/21 19:00:00, 30.69500, 1.44665E-002, 88.24868, 2.50000, 2.59544E-002, 0.00000
 Zone Sizing Information, T S2 APARTMENT, Heating, 3410.96755, 4093.16106, 0.15392, 0.18470, ATLANTA-HARTSFIELD.JACKSON.INTL.AP_GA_USA ANN HTG 99.6% CONDNS DB, 1/21 05:00:00, -6.30000, 2.29779E-003, 88.24868, 2.50000, 2.59544E-002, 0.00000
! <System Sizing Information>, System Name, Load Type, Peak Load Kind, User Design Capacity [W], Calc Des Air Flow Rate [m3/s], User Des Air Flow Rate [m3/s], Design Day Name, Date/Time of Peak
 System Sizing Information, AIRLOOP G SW, Cooling, Sensible, 4497.77, 0.34528, 0.34528, ATLANTA-HARTSFIELD.JACKSON.INTL.AP_GA_USA ANN CLG .4% CONDNS DB=>MWB, 7/21 19:00:00
 System Sizing Information, AIRLOOP G SW, Heating, Sensible, 4302.66, 0.15733, 0.15733, ATLANTA-HARTSFIELD.JACKSON.INTL.AP_GA_USA ANN HTG 99.6% CONDNS DB, 1/21 05:00:00
 System Sizing Information, AIRLOOP G NW, Cooling, Sensible, 4590.13, 0.35264, 0.35264, ATLANTA-HARTSFIELD.JACKSON.INTL.AP_GA_USA ANN CLG .4% CONDNS DB=>MWB, 7/21 19:00:00
 System Sizing Information, AIRLOOP G NW, Heating, Sensible, 4135.68, 0.14969, 0.14969, ATLANTA-HARTSFIELD.JACKSON.INTL.AP_GA_USA ANN HTG 99.6% CONDNS DB, 1/21 15:00:00
 System Sizing Information, AIRLOOP OFFICE, Cooling, Sensible, 4953.82, 0.38689, 0.38689, ATLANTA-HARTSFIELD.JACKSON.INTL.AP_GA_USA ANN CLG .4% CONDNS DB=>MWB, 7/21 11:20:00
 System Sizing Information, AIRLOOP OFFICE, Heating, Sensible, 4695.72, 0.15298, 0.15298, ATLANTA-HARTSFIELD.JACKSON.INTL.AP_GA_USA ANN HTG 99.6% CONDNS DB, 1/21 18:40:00
 System Sizing Information, AIRLOOP G NE, Cooling, Sensible, 4192.91, 0.32098, 0.32098, ATLANTA-HARTSFIELD.JACKSON.INTL.AP_GA_USA ANN CLG .4% CONDNS DB=>MWB, 7/21 19:00:00
 System Sizing Information, AIRLOOP G NE, Heating, Sensible, 4136.08, 0.14970, 0.14970, ATLANTA-HARTSFIELD.JACKSON.INTL.AP_GA_USA ANN HTG 99.6% CONDNS DB, 1/21 15:00:00
 System Sizing Information, AIRLOOP G N1, Cooling, Sensible, 3716.70, 0.28298, 0.28298, ATLANTA-HARTSFIELD.JACKSON.INTL.AP_GA_USA ANN CLG .4% CONDNS DB=>MWB, 7/21 19:00:00
 System Sizing Information, AIRLOOP G N1, Heating, Sensible, 3448.53, 0.11822, 0.11822, ATLANTA-HARTSFIELD.JACKSON.INTL.AP_GA_USA ANN HTG 99.6% CONDNS DB, 1/21 15:00:00
 System Sizing Information, AIRLOOP G N2, Cooling, Sensible, 3705.13, 0.28206, 0.28206, ATLANTA-HARTSFIELD.JACKSON.INTL.AP_GA_USA ANN CLG .4% CONDNS DB=>MWB, 7/21 19:00:00
 System Sizing Information, AIRLOOP G N2, Heating, Sensible, 3448.55, 0.11822, 0.11822, ATLANTA-HARTSFIELD.JACKSON.INTL.AP_GA_USA ANN HTG 99.6% CONDNS DB, 1/21 15:00:00
 System Sizing Information, AIRLOOP G S1, Cooling, Sensible, 3607.44, 0.27431, 0.27431, ATLANTA-HARTSFIELD.JACKSON.INTL.AP_GA_USA ANN CLG .4% CONDNS DB=>MWB, 7/21 19:00:00
 System Sizing Information, AIRLOOP G S1, Heating, Sensible, 3616.40, 0.12591, 0.12591, ATLANTA-HARTSFIELD.JACKSON.INTL.AP_GA_USA ANN HTG 99.6% CONDNS DB, 1/21 05:00:00
 System Sizing Information, AIRLOOP G S2, Cooling, Sensible, 3589.24, 0.27288, 0.27288, ATLANTA-HARTSFIELD.JACKSON.INTL.AP_GA_USA ANN CLG .4% CONDNS DB=>MWB, 7/21 19:00:00
 System Sizing Information, AIRLOOP G S2, Heating, Sensible, 3647.67, 0.12734, 0.12734, ATLANTA-HARTSFIELD.JACKSON.INTL.AP_GA_USA ANN HTG 99.6% CONDNS DB, 1/21 05:00:00
 System Sizing Information, AIRLOOP M SW, Cooling, Sensible, 43855.10, 3.38994, 3.38994, ATLANTA-HARTSFIELD.JACKSON.INTL.AP_GA_USA ANN CLG .4% CONDNS DB=>MWB, 7/21 19:00:00
 System Sizing Information, AIRLOOP M SW, Heating, Sensible, 34337.88, 1.25485, 1.25485, ATLANTA-HARTSFIELD.JACKSON.INTL.AP_GA_USA ANN HTG 99.6% CONDNS DB, 1/21 05:00:00
 System Sizing Information, AIRLOOP M NW, Cooling, Sensible, 44777.76, 3.46365, 3.46365, ATLANTA-HARTSFIELD.JACKSON.INTL.AP_GA_USA ANN CLG .4% CONDNS DB=>MWB, 7/21 19:00:00
 System Sizing Information, AIRLOOP M NW, Heating, Sensible, 32995.34, 1.19338, 1.19338, ATLANTA-HARTSFIELD.JACKSON.INTL.AP_GA_USA ANN HTG 99.6% CONDNS DB, 1/21 15:00:00
 System Sizing Information, AIRLOOP M SE, Cooling, Sensible, 38050.88, 2.92711, 2.92711, ATLANTA-HARTSFIELD.JACKSON.INTL.AP_GA_USA ANN CLG .4% CONDNS DB=>MWB, 7/21 19:00:00
 System Sizing Information, AIRLOOP M SE, Heating, Sensible, 34288.55, 1.25259, 1.25259, ATLANTA-HARTSFIELD.JACKSON.INTL.AP_GA_USA ANN HTG 99.6% CONDNS DB, 1/21 05:00:00
 System Sizing Information, AIRLOOP M NE, Cooling, Sensible, 39239.13, 3.02168, 3.02168, ATLANTA-HARTSFIELD.JACKSON.INTL.AP_GA_USA ANN CLG .4% CONDNS DB=>MWB, 7/21 19:00:00
 System Sizing Information, AIRLOOP M NE, Heating, Sensible, 32945.98, 1.19112, 1.19112, ATLANTA-HARTSFIELD.JACKSON.INTL.AP_GA_USA ANN HTG 99.6% CONDNS DB, 1/21 15:00:00
 System Sizing Information, AIRLOOP M N1, Cooling, Sensible, 35430.58, 2.71835, 2.71835, ATLANTA-HARTSFIELD.JACKSON.INTL.AP_GA_USA ANN CLG .4% CONDNS DB=>MWB, 7/21 19:00:00
 System Sizing Information, AIRLOOP M N1, Heating, Sensible, 27297.49, 0.93246, 0.93246, ATLANTA-HARTSFIELD.JACKSON.INTL.AP_GA_USA ANN HTG 99.6% CONDNS DB, 1/21 15:00:00
 System Sizing Information, AIRLOOP M N2, Cooling, Sensible, 35285.39, 2.70677, 2.70677, ATLANTA-HARTSFIELD.JACKSON.INTL.AP_GA_USA ANN CLG .4% CONDNS DB=>MWB, 7/21 19:00:00
 System Sizing Information, AIRLOOP M N2, Heating, Sensible, 27296.27, 0.93240, 0.93240, ATLANTA-HARTSFIELD.JACKSON.INTL.AP_GA_USA ANN HTG 99.6% CONDNS DB, 1/21 15:00:00
 System Sizing Information, AIRLOOP M S1, Cooling, Sensible, 34319.97, 2.62982, 2.62982, ATLANTA-HARTSFIELD.JACKSON.INTL.AP_GA_USA ANN CLG .4% CONDNS DB=>MWB, 7/21 19:00:00
 System Sizing Information, AIRLOOP M S1, Heating, Sensible, 28629.65, 0.99346, 0.99346, ATLANTA-HARTSFIELD.JACKSON.INTL.AP_GA_USA ANN HTG 99.6% CONDNS DB, 1/21 05:00:00
 System Sizing Information, AIRLOOP M S2, Cooling, Sensible, 34169.48, 2.61781, 2.61781, ATLANTA-HARTSFIELD.JACKSON.INTL.AP_GA_USA ANN CLG .4% CONDNS DB=>MWB, 7/21 19:00:00
 System Sizing Information, AIRLOOP M S2, Heating, Sensible, 28628.43, 0.99340, 0.99340, ATLANTA-HARTSFIELD.JACKSON.INTL.AP_GA_USA ANN HTG 99.6% CONDNS DB, 1/21 05:00:00
 System Sizing Information, AIRLOOP T SW, Cooling, Sensible, 6073.46, 0.47088, 0.47088, ATLANTA-HARTSFIELD.JACKSON.INTL.AP_GA_USA ANN CLG .4% CONDNS DB=>MWB, 7/21 18:50:00
[...]
 Component Sizing Information, AirLoopHVAC:UnitaryHeatPump:WaterToAir, AIRLOOP T N1 DXAC HEAT PUMP, Supply Air Flow Rate During Cooling Operation [m3/s], 0.40086
 Component Sizing Information, AirLoopHVAC:UnitaryHeatPump:WaterToAir, AIRLOOP T N1 DXAC HEAT PUMP, Supply Air Flow Rate When No Cooling or Heating is Needed [m3/s], 0.40086
 Component Sizing Information, AirLoopHVAC:UnitaryHeatPump:WaterToAir, AIRLOOP T N1 DXAC HEAT PUMP, Nominal Heating Capacity [W], 7084.34623
 Component Sizing Information, AirLoopHVAC:UnitaryHeatPump:WaterToAir, AIRLOOP T N1 DXAC HEAT PUMP, Nominal Cooling Capacity [W], 7481.16431
 Component Sizing Information, AirLoopHVAC:UnitaryHeatPump:WaterToAir, AIRLOOP T N1 DXAC HEAT PUMP, Supplemental Heating Coil Nominal Capacity [W], 4729.12436
 Component Sizing Information, AirLoopHVAC:UnitaryHeatPump:WaterToAir, AIRLOOP T N1 DXAC HEAT PUMP, Fraction of Supply Air Flow That Goes Through the Controlling Zone, 1.00000
 Component Sizing Information, Fan:OnOff, AIRLOOP T N1 SUPPLY FAN, Design Size Maximum Flow Rate [m3/s], 0.40086
 Component Sizing Information, Fan:OnOff, AIRLOOP T N1 SUPPLY FAN, Design Electric Power Consumption [W], 449.01037
 Component Sizing Information, Coil:Heating:Electric, AIRLOOP T N1_SUPPHEATCOIL, Design Size Nominal Capacity [W], 4729.12436
 Component Sizing Information, Controller:OutdoorAir, AIRLOOP T N2_OA_CONTROLLER, Maximum Outdoor Air Flow Rate [m3/s], 0.39751
 Component Sizing Information, Controller:OutdoorAir, AIRLOOP T N2_OA_CONTROLLER, Minimum Outdoor Air Flow Rate [m3/s], 2.59544E-002
 Component Sizing Information, COIL:COOLING:WATERTOAIRHEATPUMP:EQUATIONFIT, AIRLOOP T N2 COOLING COIL, Design Size Rated Air Flow Rate [m3/s], 0.39751
 Component Sizing Information, COIL:HEATING:WATERTOAIRHEATPUMP:EQUATIONFIT, AIRLOOP T N2 HEATING COIL, Design Size Rated Air Flow Rate [m3/s], 0.39751
 Component Sizing Information, COIL:COOLING:WATERTOAIRHEATPUMP:EQUATIONFIT, AIRLOOP T N2 COOLING COIL, Design Size Rated Total Cooling Capacity [W], 7429.36276
 Component Sizing Information, COIL:COOLING:WATERTOAIRHEATPUMP:EQUATIONFIT, AIRLOOP T N2 COOLING COIL, Design Size Rated Sensible Cooling Capacity [W], 4949.16153
 Component Sizing Information, COIL:HEATING:WATERTOAIRHEATPUMP:EQUATIONFIT, AIRLOOP T N2 HEATING COIL, Design Size Rated Heating Capacity [W], 7035.29235
 Component Sizing Information, COIL:HEATING:WATERTOAIRHEATPUMP:EQUATIONFIT, AIRLOOP T N2 HEATING COIL, Design Size Rated Water Flow Rate [m3/s], 1.96832E-004
 Component Sizing Information, COIL:COOLING:WATERTOAIRHEATPUMP:EQUATIONFIT, AIRLOOP T N2 COOLING COIL, Design Size Rated Water Flow Rate [m3/s], 1.96832E-004
 Component Sizing Information, AirLoopHVAC:UnitaryHeatPump:WaterToAir, AIRLOOP T N2 DXAC HEAT PUMP, Supply Air Flow Rate [m3/s], 0.39751
 Component Sizing Information, AirLoopHVAC:UnitaryHeatPump:WaterToAir, AIRLOOP T N2 DXAC HEAT PUMP, Supply Air Flow Rate During Heating Operation [m3/s], 0.39751
 Component Sizing Information, AirLoopHVAC:UnitaryHeatPump:WaterToAir, AIRLOOP T N2 DXAC HEAT PUMP, Supply Air Flow Rate During Cooling Operation [m3/s], 0.39751
 Component Sizing Information, AirLoopHVAC:UnitaryHeatPump:WaterToAir, AIRLOOP T N2 DXAC HEAT PUMP, Supply Air Flow Rate When No Cooling or Heating is Needed [m3/s], 0.39751
 Component Sizing Information, AirLoopHVAC:UnitaryHeatPump:WaterToAir, AIRLOOP T N2 DXAC HEAT PUMP, Nominal Heating Capacity [W], 7035.29235
 Component Sizing Information, AirLoopHVAC:UnitaryHeatPump:WaterToAir, AIRLOOP T N2 DXAC HEAT PUMP, Nominal Cooling Capacity [W], 7429.36276
 Component Sizing Information, AirLoopHVAC:UnitaryHeatPump:WaterToAir, AIRLOOP T N2 DXAC HEAT PUMP, Supplemental Heating Coil Nominal Capacity [W], 4728.90258
 Component Sizing Information, AirLoopHVAC:UnitaryHeatPump:WaterToAir, AIRLOOP T N2 DXAC HEAT PUMP, Fraction of Supply Air Flow That Goes Through the Controlling Zone, 1.00000
 Component Sizing Information, Fan:OnOff, AIRLOOP T N2 SUPPLY FAN, Design Size Maximum Flow Rate [m3/s], 0.39751
 Component Sizing Information, Fan:OnOff, AIRLOOP T N2 SUPPLY FAN, Design Electric Power Consumption [W], 445.25669
 Component Sizing Information, Coil:Heating:Electric, AIRLOOP T N2_SUPPHEATCOIL, Design Size Nominal Capacity [W], 4728.90258
 Component Sizing Information, Controller:OutdoorAir, AIRLOOP T S1_OA_CONTROLLER, Maximum Outdoor Air Flow Rate [m3/s], 0.38394
 Component Sizing Information, Controller:OutdoorAir, AIRLOOP T S1_OA_CONTROLLER, Minimum Outdoor Air Flow Rate [m3/s], 2.59544E-002
 Component Sizing Information, COIL:COOLING:WATERTOAIRHEATPUMP:EQUATIONFIT, AIRLOOP T S1 COOLING COIL, Design Size Rated Air Flow Rate [m3/s], 0.38394
 Component Sizing Information, COIL:HEATING:WATERTOAIRHEATPUMP:EQUATIONFIT, AIRLOOP T S1 HEATING COIL, Design Size Rated Air Flow Rate [m3/s], 0.38394
 Component Sizing Information, COIL:COOLING:WATERTOAIRHEATPUMP:EQUATIONFIT, AIRLOOP T S1 COOLING COIL, Design Size Rated Total Cooling Capacity [W], 7232.32215
 Component Sizing Information, COIL:COOLING:WATERTOAIRHEATPUMP:EQUATIONFIT, AIRLOOP T S1 COOLING COIL, Design Size Rated Sensible Cooling Capacity [W], 4798.90718
 Component Sizing Information, COIL:HEATING:WATERTOAIRHEATPUMP:EQUATIONFIT, AIRLOOP T S1 HEATING COIL, Design Size Rated Heating Capacity [W], 6848.70322
 Component Sizing Information, COIL:HEATING:WATERTOAIRHEATPUMP:EQUATIONFIT, AIRLOOP T S1 HEATING COIL, Design Size Rated Water Flow Rate [m3/s], 1.91611E-004
 Component Sizing Information, COIL:COOLING:WATERTOAIRHEATPUMP:EQUATIONFIT, AIRLOOP T S1 COOLING COIL, Design Size Rated Water Flow Rate [m3/s], 1.91611E-004
 Component Sizing Information, AirLoopHVAC:UnitaryHeatPump:WaterToAir, AIRLOOP T S1 DXAC HEAT PUMP, Supply Air Flow Rate [m3/s], 0.38394
 Component Sizing Information, AirLoopHVAC:UnitaryHeatPump:WaterToAir, AIRLOOP T S1 DXAC HEAT PUMP, Supply Air Flow Rate During Heating Operation [m3/s], 0.38394
 Component Sizing Information, AirLoopHVAC:UnitaryHeatPump:WaterToAir, AIRLOOP T S1 DXAC HEAT PUMP, Supply Air Flow Rate During Cooling Operation [m3/s], 0.38394
 Component Sizing Information, AirLoopHVAC:UnitaryHeatPump:WaterToAir, AIRLOOP T S1 DXAC HEAT PUMP, Supply Air Flow Rate When No Cooling or Heating is Needed [m3/s], 0.38394
 Component Sizing Information, AirLoopHVAC:UnitaryHeatPump:WaterToAir, AIRLOOP T S1 DXAC HEAT PUMP, Nominal Heating Capacity [W], 6848.70322
 Component Sizing Information, AirLoopHVAC:UnitaryHeatPump:WaterToAir, AIRLOOP T S1 DXAC HEAT PUMP, Nominal Cooling Capacity [W], 7232.32215
 Component Sizing Information, AirLoopHVAC:UnitaryHeatPump:WaterToAir, AIRLOOP T S1 DXAC HEAT PUMP, Supplemental Heating Coil Nominal Capacity [W], 4900.63696
 Component Sizing Information, AirLoopHVAC:UnitaryHeatPump:WaterToAir, AIRLOOP T S1 DXAC HEAT PUMP, Fraction of Supply Air Flow That Goes Through the Controlling Zone, 1.00000
 Component Sizing Information, Fan:OnOff, AIRLOOP T S1 SUPPLY FAN, Design Size Maximum Flow Rate [m3/s], 0.38394
 Component Sizing Information, Fan:OnOff, AIRLOOP T S1 SUPPLY FAN, Design Electric Power Consumption [W], 430.05610
 Component Sizing Information, Coil:Heating:Electric, AIRLOOP T S1_SUPPHEATCOIL, Design Size Nominal Capacity [W], 4900.63696
 Component Sizing Information, Controller:OutdoorAir, AIRLOOP T S2_OA_CONTROLLER, Maximum Outdoor Air Flow Rate [m3/s], 0.38051
 Component Sizing Information, Controller:OutdoorAir, AIRLOOP T S2_OA_CONTROLLER, Minimum Outdoor Air Flow Rate [m3/s], 2.59544E-002
 Component Sizing Information, COIL:COOLING:WATERTOAIRHEATPUMP:EQUATIONFIT, AIRLOOP T S2 COOLING COIL, Design Size Rated Air Flow Rate [m3/s], 0.38051
 Component Sizing Information, COIL:HEATING:WATERTOAIRHEATPUMP:EQUATIONFIT, AIRLOOP T S2 HEATING COIL, Design Size Rated Air Flow Rate [m3/s], 0.38051
 Component Sizing Information, COIL:COOLING:WATERTOAIRHEATPUMP:EQUATIONFIT, AIRLOOP T S2 COOLING COIL, Design Size Rated Total Cooling Capacity [W], 7179.29889
 Component Sizing Information, COIL:COOLING:WATERTOAIRHEATPUMP:EQUATIONFIT, AIRLOOP T S2 COOLING COIL, Design Size Rated Sensible Cooling Capacity [W], 4759.91649
 Component Sizing Information, COIL:HEATING:WATERTOAIRHEATPUMP:EQUATIONFIT, AIRLOOP T S2 HEATING COIL, Design Size Rated Heating Capacity [W], 6798.49244
 Component Sizing Information, COIL:HEATING:WATERTOAIRHEATPUMP:EQUATIONFIT, AIRLOOP T S2 HEATING COIL, Design Size Rated Water Flow Rate [m3/s], 1.90206E-004
 Component Sizing Information, COIL:COOLING:WATERTOAIRHEATPUMP:EQUATIONFIT, AIRLOOP T S2 COOLING COIL, Design Size Rated Water Flow Rate [m3/s], 1.90206E-004
 Component Sizing Information, AirLoopHVAC:UnitaryHeatPump:WaterToAir, AIRLOOP T S2 DXAC HEAT PUMP, Supply Air Flow Rate [m3/s], 0.38051
 Component Sizing Information, AirLoopHVAC:UnitaryHeatPump:WaterToAir, AIRLOOP T S2 DXAC HEAT PUMP, Supply Air Flow Rate During Heating Operation [m3/s], 0.38051
 Component Sizing Information, AirLoopHVAC:UnitaryHeatPump:WaterToAir, AIRLOOP T S2 DXAC HEAT PUMP, Supply Air Flow Rate During Cooling Operation [m3/s], 0.38051
 Component Sizing Information, AirLoopHVAC:UnitaryHeatPump:WaterToAir, AIRLOOP T S2 DXAC HEAT PUMP, Supply Air Flow Rate When No Cooling or Heating is Needed [m3/s], 0.38051
 Component Sizing Information, AirLoopHVAC:UnitaryHeatPump:WaterToAir, AIRLOOP T S2 DXAC HEAT PUMP, Nominal Heating Capacity [W], 6798.49244
 Component Sizing Information, AirLoopHVAC:UnitaryHeatPump:WaterToAir, AIRLOOP T S2 DXAC HEAT PUMP, Nominal Cooling Capacity [W], 7179.29889
 Component Sizing Information, AirLoopHVAC:UnitaryHeatPump:WaterToAir, AIRLOOP T S2 DXAC HEAT PUMP, Supplemental Heating Coil Nominal Capacity [W], 4900.41547
 Component Sizing Information, AirLoopHVAC:UnitaryHeatPump:WaterToAir, AIRLOOP T S2 DXAC HEAT PUMP, Fraction of Supply Air Flow That Goes Through the Controlling Zone, 1.00000
 Component Sizing Information, Fan:OnOff, AIRLOOP T S2 SUPPLY FAN, Design Size Maximum Flow Rate [m3/s], 0.38051
 Component Sizing Information, Fan:OnOff, AIRLOOP T S2 SUPPLY FAN, Design Electric Power Consumption [W], 426.21226
 Component Sizing Information, Coil:Heating:Electric, AIRLOOP T S2_SUPPHEATCOIL, Design Size Nominal Capacity [W], 4900.41547
Water Heater Information,WaterHeater:Mixed,SWHSYS1 WATER HEATER,2.2712,175842.6,0.275,5.4220E-002
 Component Sizing Information, PlantLoop, SINGLE WATER PLANT LOOP, Maximum Loop Flow Rate [m3/s], 1.47635E-002
 Component Sizing Information, PlantLoop, SINGLE WATER PLANT LOOP, Plant Loop Volume [m3], 1.77163
 Component Sizing Information, PlantLoop, SINGLE WATER PLANT LOOP, Design Supply Temperature [C], 30.00000
 Component Sizing Information, PlantLoop, SINGLE WATER PLANT LOOP, Design Return Temperature [C], 19.00000
 Component Sizing Information, PlantLoop, SINGLE WATER PLANT LOOP, Sizing Option, NonCoincident
 Component Sizing Information, PlantLoop, SINGLE WATER PLANT LOOP, Minimum Loop Flow Rate [m3/s], 0.00000
 Component Sizing Information, PlantLoop, SINGLE WATER PLANT LOOP, Design Capacity [W], 681670.15907
 Component Sizing Information, Pump:ConstantSpeed, PLANT CIRC PUMP, Design Flow Rate [m3/s], 1.47635E-002
 Component Sizing Information, Pump:ConstantSpeed, PLANT CIRC PUMP, Design Power Consumption [W], 3728.16116
 Component Sizing Information, EvaporativeFluidCooler:TwoSpeed, CENTRAL TOWER, Design Water Flow Rate [m3/s], 1.47635E-002
 Component Sizing Information, EvaporativeFluidCooler:TwoSpeed, CENTRAL TOWER, Fan Power at High Fan Speed [W], 7126.96574
 Component Sizing Information, EvaporativeFluidCooler:TwoSpeed, CENTRAL TOWER, Air Flow Rate at High Fan Speed [m3/s], 19.02428
 Component Sizing Information, EvaporativeFluidCooler:TwoSpeed, CENTRAL TOWER, U-Factor Times Area Value at High Fan Speed [W/C], 21802.55041
 Component Sizing Information, EvaporativeFluidCooler:TwoSpeed, CENTRAL TOWER, Air Flow Rate at Low Fan Speed [m3/s], 9.51214
 Component Sizing Information, EvaporativeFluidCooler:TwoSpeed, CENTRAL TOWER, Fan Power at Low Fan Speed [W], 1140.31452
 Component Sizing Information, EvaporativeFluidCooler:TwoSpeed, CENTRAL TOWER, U-Factor Times Area Value at Low Fan Speed [W/C], 13081.53024
 Component Sizing Information, Boiler:HotWater, CENTRAL BOILER, Design Size Nominal Capacity [W], 668221.92732
 Component Sizing Information, Boiler:HotWater, CENTRAL BOILER, User-Specified Nominal Capacity [W], 484297.30000
 Component Sizing Information, Boiler:HotWater, CENTRAL BOILER, Design Size Design Water Flow Rate [m3/s], 1.47635E-002
 Component Sizing Information, PlantLoop, SWHSYS1, Maximum Loop Flow Rate [m3/s], 2.89140E-004
 Component Sizing Information, PlantLoop, SWHSYS1, Plant Loop Volume [m3], 3.46968E-002
 Component Sizing Information, PlantLoop, SWHSYS1, Design Supply Temperature [C], 60.00000
 Component Sizing Information, PlantLoop, SWHSYS1, Design Return Temperature [C], 55.00000
 Component Sizing Information, PlantLoop, SWHSYS1, Sizing Option, NonCoincident
 Component Sizing Information, PlantLoop, SWHSYS1, Minimum Loop Flow Rate [m3/s], 0.00000
 Component Sizing Information, PlantLoop, SWHSYS1, Design Capacity [W], 6068.32837
 Component Sizing Information, Pump:ConstantSpeed, SWHSYS1 PUMP, Design Flow Rate [m3/s], 2.89140E-004
 Component Sizing Information, Pump:ConstantSpeed, SWHSYS1 PUMP, Design Power Consumption [W], 36.93455
 Component Sizing Information, WaterHeater:Mixed, SWHSYS1 WATER HEATER, Use Side Design Flow Rate [m3/s], 2.89140E-004
! <Environment>,Environment Name,Environment Type, Start Date, End Date, Start DayOfWeek, Duration {#days}, Source:Start DayOfWeek,  Use Daylight Saving, Use Holidays, Apply Weekend Holiday Rule,  Use Rain Values, Use Snow Values, Sky Temperature Model
! <Environment:Special Days>, Special Day Name, Special Day Type, Source, Start Date, Duration {#days}
! <Environment:Daylight Saving>, Daylight Saving Indicator, Source, Start Date, End Date
! <Environment:WarmupDays>, NumberofWarmupDays
Environment,RUNPERIOD 1,WeatherFileRunPeriod,01/01/2017,12/31/2017,Sunday,365,Use RunPeriod Specified Day,No,No,No,Yes,Yes,Clark and Allen
Environment:Daylight Saving,Yes,InputFile,03/12,11/05
Environment:Special Days,NEW YEARS DAY,Holiday,InputFile,01/01,  1
Environment:Special Days,VETERANS DAY,Holiday,InputFile,11/11,  1
Environment:Special Days,CHRISTMAS,Holiday,InputFile,12/25,  1
Environment:Special Days,INDEPENDENCE DAY,Holiday,InputFile,07/04,  1
Environment:Special Days,MLK DAY,Holiday,InputFile,01/16,  1
Environment:Special Days,PRESIDENTS DAY,Holiday,InputFile,02/20,  1
Environment:Special Days,MEMORIAL DAY,Holiday,InputFile,05/29,  1
Environment:Special Days,LABOR DAY,Holiday,InputFile,09/04,  1
Environment:Special Days,COLUMBUS DAY,Holiday,InputFile,10/09,  1
Environment:Special Days,THANKSGIVING,Holiday,InputFile,11/23,  1
Environment:WarmupDays,  7
! <Tabular Report>,Style,Unit Conversion, Format Reals
Tabular Report,COMMAANDHTML,None,Yes
! <Warmup Convergence Information>,Zone Name,Environment Type/Name,Average Warmup Temperature Difference {deltaC},Std Dev Warmup Temperature Difference {deltaC},Max Temperature Pass/Fail Convergence,Min Temperature Pass/Fail Convergence,Average Warmup Load Difference {W},Std Dev Warmup Load Difference {W},Heating Load Pass/Fail Convergence,Cooling Load Pass/Fail Convergence
 Warmup Convergence Information,G SW APARTMENT,RunPeriod: RUNPERIOD 1,1.4506956204E-004,4.8795521761E-004,Pass,Pass,1.1232728351E-002,2.2312516342E-002,Pass,Pass
 Warmup Convergence Information,G NW APARTMENT,RunPeriod: RUNPERIOD 1,1.4666632911E-004,5.0353378450E-004,Pass,Pass,1.0805813420E-002,2.1453964268E-002,Pass,Pass
 Warmup Convergence Information,OFFICE,RunPeriod: RUNPERIOD 1,1.4824847769E-009,1.2079329903E-008,Pass,Pass,1.5666261842E-002,4.2196619983E-002,Pass,Pass
 Warmup Convergence Information,G NE APARTMENT,RunPeriod: RUNPERIOD 1,1.3749486388E-004,4.8017196273E-004,Pass,Pass,1.0728630593E-002,2.1223231448E-002,Pass,Pass
 Warmup Convergence Information,G N1 APARTMENT,RunPeriod: RUNPERIOD 1,1.1924669386E-004,4.0739099962E-004,Pass,Pass,1.1462569859E-002,2.0510751751E-002,Pass,Pass
 Warmup Convergence Information,G N2 APARTMENT,RunPeriod: RUNPERIOD 1,1.1900306972E-004,4.0674165073E-004,Pass,Pass,1.1461255250E-002,2.0509242029E-002,Pass,Pass
 Warmup Convergence Information,G S1 APARTMENT,RunPeriod: RUNPERIOD 1,1.1727154932E-004,3.8580314886E-004,Pass,Pass,1.2482949574E-002,2.4200295514E-002,Pass,Pass
 Warmup Convergence Information,G S2 APARTMENT,RunPeriod: RUNPERIOD 1,1.1696902433E-004,4.0958442094E-004,Pass,Pass,1.0516714531E-002,2.0293510945E-002,Pass,Pass
 Warmup Convergence Information,G CORRIDOR,RunPeriod: RUNPERIOD 1,2.5920281855E-002,6.9237342155E-002,Pass,Pass,0.0000000000,0.0000000000,Pass,Pass
 Warmup Convergence Information,M SW APARTMENT,RunPeriod: RUNPERIOD 1,1.5156280866E-004,4.7585330325E-004,Pass,Pass,1.2541731653E-002,2.4270898821E-002,Pass,Pass
 Warmup Convergence Information,M NW APARTMENT,RunPeriod: RUNPERIOD 1,1.5207359402E-004,4.9724489975E-004,Pass,Pass,1.1541720242E-002,2.1495696311E-002,Pass,Pass
 Warmup Convergence Information,M SE APARTMENT,RunPeriod: RUNPERIOD 1,1.3956528196E-004,4.4713165654E-004,Pass,Pass,1.2552535559E-002,2.4371577071E-002,Pass,Pass
 Warmup Convergence Information,M NE APARTMENT,RunPeriod: RUNPERIOD 1,1.4111903873E-004,4.6932876454E-004,Pass,Pass,1.1551201843E-002,2.1591473119E-002,Pass,Pass
 Warmup Convergence Information,M N1 APARTMENT,RunPeriod: RUNPERIOD 1,1.2312430022E-004,4.0161260567E-004,Pass,Pass,1.2570185373E-002,2.1637093033E-002,Pass,Pass
 Warmup Convergence Information,M N2 APARTMENT,RunPeriod: RUNPERIOD 1,1.2285150905E-004,4.0089301725E-004,Pass,Pass,1.2570614658E-002,2.1638062452E-002,Pass,Pass
 Warmup Convergence Information,M S1 APARTMENT,RunPeriod: RUNPERIOD 1,1.2186812917E-004,3.7845054299E-004,Pass,Pass,1.3918386866E-002,2.6362264632E-002,Pass,Pass
 Warmup Convergence Information,M S2 APARTMENT,RunPeriod: RUNPERIOD 1,1.2157019281E-004,3.7771656698E-004,Pass,Pass,1.3918910166E-002,2.6363665572E-002,Pass,Pass
 Warmup Convergence Information,M CORRIDOR,RunPeriod: RUNPERIOD 1,6.8828797172E-003,1.0482969442E-002,Pass,Pass,0.0000000000,0.0000000000,Pass,Pass
 Warmup Convergence Information,T SW APARTMENT,RunPeriod: RUNPERIOD 1,1.9109819087E-004,6.3071736876E-004,Pass,Pass,1.1905495189E-002,2.3233937174E-002,Pass,Pass
 Warmup Convergence Information,T NW APARTMENT,RunPeriod: RUNPERIOD 1,1.9282272967E-004,6.5491094594E-004,Pass,Pass,1.1043204528E-002,2.1456972464E-002,Pass,Pass
 Warmup Convergence Information,T SE APARTMENT,RunPeriod: RUNPERIOD 1,1.6841653744E-004,5.7800477374E-004,Pass,Pass,1.1955950709E-002,2.3474657838E-002,Pass,Pass
 Warmup Convergence Information,T NE APARTMENT,RunPeriod: RUNPERIOD 1,1.7232467899E-004,6.0439853031E-004,Pass,Pass,1.1090670167E-002,2.1695223075E-002,Pass,Pass
 Warmup Convergence Information,T N1 APARTMENT,RunPeriod: RUNPERIOD 1,1.6127260680E-004,5.5646850862E-004,Pass,Pass,1.0876382868E-002,1.9001702599E-002,Pass,Pass
 Warmup Convergence Information,T N2 APARTMENT,RunPeriod: RUNPERIOD 1,1.6041664896E-004,5.5427430819E-004,Pass,Pass,1.0877382196E-002,1.9003194927E-002,Pass,Pass
 Warmup Convergence Information,T S1 APARTMENT,RunPeriod: RUNPERIOD 1,1.5849963985E-004,5.2968389690E-004,Pass,Pass,1.1877551381E-002,2.1587008674E-002,Pass,Pass
 Warmup Convergence Information,T S2 APARTMENT,RunPeriod: RUNPERIOD 1,1.5756099026E-004,5.2742875651E-004,Pass,Pass,1.1878557634E-002,2.1589177046E-002,Pass,Pass
 Warmup Convergence Information,T CORRIDOR,RunPeriod: RUNPERIOD 1,2.5508368538E-002,3.1741513908E-002,Pass,Pass,0.0000000000,0.0000000000,Pass,Pass
! <Program Control Information:Threads/Parallel Sims>, Threading Supported,Maximum Number of Threads, Env Set Threads (OMP_NUM_THREADS), EP Env Set Threads (EP_OMP_NUM_THREADS), IDF Set Threads, Number of Threads Used (Interior Radiant Exchange), Number Nominal Surfaces, Number Parallel Sims
Program Control Information:Threads/Parallel Sims, No,1, N/A, N/A, N/A, N/A, N/A, N/A
End of Data
