  0
SECTION
  2
ENTITIES
999
DXF created from EnergyPlus
999
Program Version,EnergyPlus, Version 26.1.0-6f2e40d102, YMD=2026.04.14 19:01
999
Polygon Action,REGULARPOLYLINE
999
Color Scheme,Default
999
Text - True North
  0
TEXT
  8
1
  6
Continuous
 62
  3
 10
      -11.00000
 20
        3.00000
 30
        0.10000
 40
 .25
  1
True North
 41
 0.0
  7
MONOTXT
210
0.0
220
0.0
230
1.0
999
Text - Building Title
  0
TEXT
  8
1
  6
Continuous
 62
  3
 10
      -14.00000
 20
       -1.00000
 30
        0.10000
 40
 .4
  1
Building - ApartmentMidRise
 41
 0.0
  7
MONOTXT
210
0.0
220
0.0
230
1.0
999
North Arrow Stem
  0
3DFACE
  8
1
 62
  3
 10
      -10.00000
 20
        3.00000
 30
        0.10000
 11
      -10.00000
 21
        3.00000
 31
        0.00000
 12
      -10.00000
 22
        0.00000
 32
        0.00000
 13
      -10.00000
 23
        0.00000
 33
        0.10000
999
North Arrow Head 1
  0
3DFACE
  8
1
 62
  3
 10
      -10.00000
 20
        3.00000
 30
        0.10000
 11
      -10.00000
 21
        3.00000
 31
        0.00000
 12
      -10.50000
 22
        2.13397
 32
        0.00000
 13
      -10.50000
 23
        2.13397
 33
        0.10000
999
North Arrow Head 2
  0
3DFACE
  8
1
 62
  3
 10
      -10.00000
 20
        3.00000
 30
        0.10000
 11
      -10.00000
 21
        3.00000
 31
        0.00000
 12
       -9.50000
 22
        2.13397
 32
        0.00000
 13
       -9.50000
 23
        2.13397
 33
        0.10000
999
North Arrow Side 1
  0
3DFACE
  8
1
 62
  3
 10
      -10.50000
 20
        4.50000
 30
        0.10000
 11
      -10.50000
 21
        4.50000
 31
        0.00000
 12
      -10.50000
 22
        3.50000
 32
        0.00000
 13
      -10.50000
 23
        3.50000
 33
        0.10000
999
North Arrow Side 2
  0
3DFACE
  8
1
 62
  3
 10
      -10.50000
 20
        4.50000
 30
        0.10000
 11
      -10.50000
 21
        4.50000
 31
        0.00000
 12
       -9.50000
 22
        3.50000
 32
        0.00000
 13
       -9.50000
 23
        3.50000
 33
        0.10000
999
North Arrow Side 3
  0
3DFACE
  8
1
 62
  3
 10
       -9.50000
 20
        4.50000
 30
        0.10000
 11
       -9.50000
 21
        4.50000
 31
        0.00000
 12
       -9.50000
 22
        3.50000
 32
        0.00000
 13
       -9.50000
 23
        3.50000
 33
        0.10000
999
Zone Names
999
Zone=1:G_SW_APARTMENT
999
Zone=2:G_NW_APARTMENT
999
Zone=3:OFFICE
999
Zone=4:G_NE_APARTMENT
999
Zone=5:G_N1_APARTMENT
999
Zone=6:G_N2_APARTMENT
999
Zone=7:G_S1_APARTMENT
999
Zone=8:G_S2_APARTMENT
999
Zone=9:M_SW_APARTMENT
999
Zone=10:M_NW_APARTMENT
999
Zone=11:M_SE_APARTMENT
999
Zone=12:M_NE_APARTMENT
999
Zone=13:M_N1_APARTMENT
999
Zone=14:M_N2_APARTMENT
999
Zone=15:M_S1_APARTMENT
999
Zone=16:M_S2_APARTMENT
999
Zone=17:T_SW_APARTMENT
999
Zone=18:T_NW_APARTMENT
999
Zone=19:T_SE_APARTMENT
999
Zone=20:T_NE_APARTMENT
999
Zone=21:T_N1_APARTMENT
999
Zone=22:T_N2_APARTMENT
999
Zone=23:T_S1_APARTMENT
999
Zone=24:T_S2_APARTMENT
999
Zone=25:T_CORRIDOR
999
Zone=26:G_CORRIDOR
999
Zone=27:M_CORRIDOR
999
G SW APARTMENT:G SWALL SWA
  0
3DFACE
  8
G_SW_APARTMENT
 62
 43
 10
        0.00000
 20
        0.00000
 30
        3.04785
 11
        0.00000
 21
        0.00000
 31
        0.00000
 12
       11.58183
 22
        0.00000
 32
        0.00000
 13
       11.58183
 23
        0.00000
 33
        3.04785
999
G SW APARTMENT:GWINDOW1 S SWA
  0
3DFACE
  8
G_SW_APARTMENT
 62
143
 10
        2.95291
 20
        0.00000
 30
        2.16101
 11
        2.95291
 21
        0.00000
 31
        0.97838
 12
        8.68601
 22
        0.00000
 32
        0.95400
 13
        8.57019
 23
        0.00000
 33
        2.16101
999
G SW APARTMENT:G WWALL SWA
  0
3DFACE
  8
G_SW_APARTMENT
 62
 43
 10
        0.00000
 20
        7.61963
 30
        3.04785
 11
        0.00000
 21
        7.61963
 31
        0.00000
 12
        0.00000
 22
        0.00000
 32
        0.00000
 13
        0.00000
 23
        0.00000
 33
        3.04785
999
G SW APARTMENT:GWINDOW1 W SWA
  0
3DFACE
  8
G_SW_APARTMENT
 62
143
 10
        0.00000
 20
        5.63990
 30
        2.16101
 11
        0.00000
 21
        5.63990
 31
        0.97838
 12
        0.00000
 22
        1.86800
 32
        0.95400
 13
        0.00000
 23
        1.94420
 33
        2.16101
999
G SW APARTMENT:G NIWALL SWA
  0
3DFACE
  8
G_SW_APARTMENT
 62
 43
 10
       11.58183
 20
        7.61963
 30
        3.04785
 11
       11.58183
 21
        7.61963
 31
        0.00000
 12
        0.00000
 22
        7.61963
 32
        0.00000
 13
        0.00000
 23
        7.61963
 33
        3.04785
999
G SW APARTMENT:G EIWALL SWA
  0
3DFACE
  8
G_SW_APARTMENT
 62
 43
 10
       11.58183
 20
        0.00000
 30
        3.04785
 11
       11.58183
 21
        0.00000
 31
        0.00000
 12
       11.58183
 22
        7.61963
 32
        0.00000
 13
       11.58183
 23
        7.61963
 33
        3.04785
999
G SW APARTMENT:G GFLOOR SWA
  0
3DFACE
  8
G_SW_APARTMENT
 62
  8
 10
       11.58183
 20
        0.00000
 30
        0.00000
 11
        0.00000
 21
        0.00000
 31
        0.00000
 12
        0.00000
 22
        7.61963
 32
        0.00000
 13
       11.58183
 23
        7.61963
 33
        0.00000
999
G SW APARTMENT:G CEILIN SWA
  0
3DFACE
  8
G_SW_APARTMENT
 62
 15
 10
        0.00000
 20
        7.61963
 30
        3.04785
 11
        0.00000
 21
        0.00000
 31
        3.04785
 12
       11.58183
 22
        0.00000
 32
        3.04785
 13
       11.58183
 23
        7.61963
 33
        3.04785
999
G NW APARTMENT:G NWALL NWA
  0
3DFACE
  8
G_NW_APARTMENT
 62
 43
 10
       11.58183
 20
       16.91557
 30
        3.04785
 11
       11.58183
 21
       16.91557
 31
        0.00000
 12
        0.00000
 22
       16.91557
 32
        0.00000
 13
        0.00000
 23
       16.91557
 33
        3.04785
999
G NW APARTMENT:GWINDOW1 N NWA
  0
3DFACE
  8
G_NW_APARTMENT
 62
143
 10
        8.62809
 20
       16.91555
 30
        2.16101
 11
        8.62809
 21
       16.91555
 31
        0.97838
 12
        2.89499
 22
       16.91555
 32
        0.95400
 13
        3.01081
 23
       16.91555
 33
        2.16101
999
G NW APARTMENT:G WWALL NWA
  0
3DFACE
  8
G_NW_APARTMENT
 62
 43
 10
        0.00000
 20
       16.91557
 30
        3.04785
 11
        0.00000
 21
       16.91557
 31
        0.00000
 12
        0.00000
 22
        9.29595
 32
        0.00000
 13
        0.00000
 23
        9.29595
 33
        3.04785
999
G NW APARTMENT:GWINDOW1 W NWA
  0
3DFACE
  8
G_NW_APARTMENT
 62
143
 10
        0.00000
 20
       14.93585
 30
        2.16101
 11
        0.00000
 21
       14.93585
 31
        0.97838
 12
        0.00000
 22
       11.16395
 32
        0.95400
 13
        0.00000
 23
       11.24015
 33
        2.16101
999
G NW APARTMENT:G SIWALL NWA
  0
3DFACE
  8
G_NW_APARTMENT
 62
 43
 10
        0.00000
 20
        9.29595
 30
        3.04785
 11
        0.00000
 21
        9.29595
 31
        0.00000
 12
       11.58183
 22
        9.29595
 32
        0.00000
 13
       11.58183
 23
        9.29595
 33
        3.04785
999
G NW APARTMENT:G EIWALL NWA
  0
3DFACE
  8
G_NW_APARTMENT
 62
 43
 10
       11.58183
 20
        9.29595
 30
        3.04785
 11
       11.58183
 21
        9.29595
 31
        0.00000
 12
       11.58183
 22
       16.91557
 32
        0.00000
 13
       11.58183
 23
       16.91557
 33
        3.04785
999
G NW APARTMENT:G GFLOOR NWA
  0
3DFACE
  8
G_NW_APARTMENT
 62
  8
 10
       11.58183
 20
        9.29595
 30
        0.00000
 11
        0.00000
 21
        9.29595
 31
        0.00000
 12
        0.00000
 22
       16.91557
 32
        0.00000
 13
       11.58183
 23
       16.91557
 33
        0.00000
999
G NW APARTMENT:G CEILIN NWA
  0
3DFACE
  8
G_NW_APARTMENT
 62
 15
 10
        0.00000
 20
       16.91557
 30
        3.04785
 11
        0.00000
 21
        9.29595
 31
        3.04785
 12
       11.58183
 22
        9.29595
 32
        3.04785
 13
       11.58183
 23
       16.91557
 33
        3.04785
999
OFFICE:G SWALL SEA
  0
3DFACE
  8
OFFICE
 62
 43
 10
       34.74551
 20
        0.00000
 30
        3.04785
 11
       34.74551
 21
        0.00000
 31
        0.00000
 12
       46.32734
 22
        0.00000
 32
        0.00000
 13
       46.32734
 23
        0.00000
 33
        3.04785
999
OFFICE:GWINDOW1 S SEA
  0
3DFACE
  8
OFFICE
 62
143
 10
       37.69842
 20
        0.00000
 30
        2.16101
 11
       37.69842
 21
        0.00000
 31
        0.97838
 12
       43.43152
 22
        0.00000
 32
        0.95400
 13
       43.31570
 23
        0.00000
 33
        2.16101
999
OFFICE:G EWALL SEA
  0
3DFACE
  8
OFFICE
 62
 43
 10
       46.32734
 20
        0.00000
 30
        3.04785
 11
       46.32734
 21
        0.00000
 31
        0.00000
 12
       46.32734
 22
        7.61963
 32
        0.00000
 13
       46.32734
 23
        7.61963
 33
        3.04785
999
OFFICE:GWINDOW1 E SEA
  0
3DFACE
  8
OFFICE
 62
143
 10
       46.32731
 20
        1.94300
 30
        2.16101
 11
       46.32731
 21
        1.94300
 31
        0.97838
 12
       46.32731
 22
        5.71490
 32
        0.95400
 13
       46.32731
 23
        5.63870
 33
        2.16101
999
OFFICE:G NIWALL SEA
  0
3DFACE
  8
OFFICE
 62
 43
 10
       46.32734
 20
        7.61963
 30
        3.04785
 11
       46.32734
 21
        7.61963
 31
        0.00000
 12
       34.74551
 22
        7.61963
 32
        0.00000
 13
       34.74551
 23
        7.61963
 33
        3.04785
999
OFFICE:iz-G EIWALL S2A
  0
3DFACE
  8
OFFICE
 62
 43
 10
       34.74551
 20
        7.61963
 30
        3.04785
 11
       34.74551
 21
        7.61963
 31
        0.00000
 12
       34.74551
 22
        0.00000
 32
        0.00000
 13
       34.74551
 23
        0.00000
 33
        3.04785
999
OFFICE:G GFLOOR SEA
  0
3DFACE
  8
OFFICE
 62
  8
 10
       46.32734
 20
        0.00000
 30
        0.00000
 11
       34.74551
 21
        0.00000
 31
        0.00000
 12
       34.74551
 22
        7.61963
 32
        0.00000
 13
       46.32734
 23
        7.61963
 33
        0.00000
999
OFFICE:G CEILIN SEA
  0
3DFACE
  8
OFFICE
 62
 15
 10
       34.74551
 20
        7.61963
 30
        3.04785
 11
       34.74551
 21
        0.00000
 31
        3.04785
 12
       46.32734
 22
        0.00000
 32
        3.04785
 13
       46.32734
 23
        7.61963
 33
        3.04785
999
G NE APARTMENT:G NWALL NEA
  0
3DFACE
  8
G_NE_APARTMENT
 62
 43
 10
       46.32734
 20
       16.91557
 30
        3.04785
 11
       46.32734
 21
       16.91557
 31
        0.00000
 12
       34.74551
 22
       16.91557
 32
        0.00000
 13
       34.74551
 23
       16.91557
 33
        3.04785
999
G NE APARTMENT:GWINDOW1 N NEA
  0
3DFACE
  8
G_NE_APARTMENT
 62
143
 10
       43.37360
 20
       16.91555
 30
        2.16101
 11
       43.37360
 21
       16.91555
 31
        0.97838
 12
       37.64049
 22
       16.91555
 32
        0.95400
 13
       37.75632
 23
       16.91555
 33
        2.16101
999
G NE APARTMENT:G EWALL NEA
  0
3DFACE
  8
G_NE_APARTMENT
 62
 43
 10
       46.32734
 20
        9.29595
 30
        3.04785
 11
       46.32734
 21
        9.29595
 31
        0.00000
 12
       46.32734
 22
       16.91557
 32
        0.00000
 13
       46.32734
 23
       16.91557
 33
        3.04785
999
G NE APARTMENT:GWINDOW1 E NEA
  0
3DFACE
  8
G_NE_APARTMENT
 62
143
 10
       46.32731
 20
       11.23895
 30
        2.16101
 11
       46.32731
 21
       11.23895
 31
        0.97838
 12
       46.32731
 22
       15.01085
 32
        0.95400
 13
       46.32731
 23
       14.93465
 33
        2.16101
999
G NE APARTMENT:G SIWALL NEA
  0
3DFACE
  8
G_NE_APARTMENT
 62
 43
 10
       34.74551
 20
        9.29595
 30
        3.04785
 11
       34.74551
 21
        9.29595
 31
        0.00000
 12
       46.32734
 22
        9.29595
 32
        0.00000
 13
       46.32734
 23
        9.29595
 33
        3.04785
999
G NE APARTMENT:iz-G EIWALL N2A
  0
3DFACE
  8
G_NE_APARTMENT
 62
 43
 10
       34.74551
 20
       16.91557
 30
        3.04785
 11
       34.74551
 21
       16.91557
 31
        0.00000
 12
       34.74551
 22
        9.29595
 32
        0.00000
 13
       34.74551
 23
        9.29595
 33
        3.04785
999
G NE APARTMENT:G GFLOOR NEA
  0
3DFACE
  8
G_NE_APARTMENT
 62
  8
 10
       46.32734
 20
        9.29595
 30
        0.00000
 11
       34.74551
 21
        9.29595
 31
        0.00000
 12
       34.74551
 22
       16.91557
 32
        0.00000
 13
       46.32734
 23
       16.91557
 33
        0.00000
999
G NE APARTMENT:G CEILIN NEA
  0
3DFACE
  8
G_NE_APARTMENT
 62
 15
 10
       34.74551
 20
       16.91557
 30
        3.04785
 11
       34.74551
 21
        9.29595
 31
        3.04785
 12
       46.32734
 22
        9.29595
 32
        3.04785
 13
       46.32734
 23
       16.91557
 33
        3.04785
999
G N1 APARTMENT:G NWALL N1A
  0
3DFACE
  8
G_N1_APARTMENT
 62
 43
 10
       23.16367
 20
       16.91557
 30
        3.04785
 11
       23.16367
 21
       16.91557
 31
        0.00000
 12
       11.58184
 22
       16.91557
 32
        0.00000
 13
       11.58184
 23
       16.91557
 33
        3.04785
999
G N1 APARTMENT:GWINDOW1 N N1A
  0
3DFACE
  8
G_N1_APARTMENT
 62
143
 10
       20.20993
 20
       16.91555
 30
        2.16101
 11
       20.20993
 21
       16.91555
 31
        0.97838
 12
       14.47682
 22
       16.91555
 32
        0.95400
 13
       14.59265
 23
       16.91555
 33
        2.16101
999
G N1 APARTMENT:G SIWALL N1A
  0
3DFACE
  8
G_N1_APARTMENT
 62
 43
 10
       11.58184
 20
        9.29595
 30
        3.04785
 11
       11.58184
 21
        9.29595
 31
        0.00000
 12
       23.16367
 22
        9.29595
 32
        0.00000
 13
       23.16367
 23
        9.29595
 33
        3.04785
999
G N1 APARTMENT:G EIWALL N1A
  0
3DFACE
  8
G_N1_APARTMENT
 62
 43
 10
       23.16367
 20
        9.29595
 30
        3.04785
 11
       23.16367
 21
        9.29595
 31
        0.00000
 12
       23.16367
 22
       16.91557
 32
        0.00000
 13
       23.16367
 23
       16.91557
 33
        3.04785
999
G N1 APARTMENT:iz-G EIWALL NWA
  0
3DFACE
  8
G_N1_APARTMENT
 62
 43
 10
       11.58183
 20
       16.91557
 30
        3.04785
 11
       11.58183
 21
       16.91557
 31
        0.00000
 12
       11.58183
 22
        9.29595
 32
        0.00000
 13
       11.58183
 23
        9.29595
 33
        3.04785
999
G N1 APARTMENT:G GFLOOR N1A
  0
3DFACE
  8
G_N1_APARTMENT
 62
  8
 10
       23.16367
 20
        9.29595
 30
        0.00000
 11
       11.58184
 21
        9.29595
 31
        0.00000
 12
       11.58184
 22
       16.91557
 32
        0.00000
 13
       23.16367
 23
       16.91557
 33
        0.00000
999
G N1 APARTMENT:G CEILIN N1A
  0
3DFACE
  8
G_N1_APARTMENT
 62
 15
 10
       11.58184
 20
       16.91557
 30
        3.04785
 11
       11.58184
 21
        9.29595
 31
        3.04785
 12
       23.16367
 22
        9.29595
 32
        3.04785
 13
       23.16367
 23
       16.91557
 33
        3.04785
999
G N2 APARTMENT:G NWALL N2A
  0
3DFACE
  8
G_N2_APARTMENT
 62
 43
 10
       34.74551
 20
       16.91557
 30
        3.04785
 11
       34.74551
 21
       16.91557
 31
        0.00000
 12
       23.16367
 22
       16.91557
 32
        0.00000
 13
       23.16367
 23
       16.91557
 33
        3.04785
999
G N2 APARTMENT:GWINDOW1 N N2A
  0
3DFACE
  8
G_N2_APARTMENT
 62
143
 10
       31.79176
 20
       16.91555
 30
        2.16101
 11
       31.79176
 21
       16.91555
 31
        0.97838
 12
       26.05866
 22
       16.91555
 32
        0.95400
 13
       26.17448
 23
       16.91555
 33
        2.16101
999
G N2 APARTMENT:G SIWALL N2A
  0
3DFACE
  8
G_N2_APARTMENT
 62
 43
 10
       23.16367
 20
        9.29595
 30
        3.04785
 11
       23.16367
 21
        9.29595
 31
        0.00000
 12
       34.74551
 22
        9.29595
 32
        0.00000
 13
       34.74551
 23
        9.29595
 33
        3.04785
999
G N2 APARTMENT:G EIWALL N2A
  0
3DFACE
  8
G_N2_APARTMENT
 62
 43
 10
       34.74551
 20
        9.29595
 30
        3.04785
 11
       34.74551
 21
        9.29595
 31
        0.00000
 12
       34.74551
 22
       16.91557
 32
        0.00000
 13
       34.74551
 23
       16.91557
 33
        3.04785
999
G N2 APARTMENT:iz-G EIWALL N1A
  0
3DFACE
  8
G_N2_APARTMENT
 62
 43
 10
       23.16367
 20
       16.91557
 30
        3.04785
 11
       23.16367
 21
       16.91557
 31
        0.00000
 12
       23.16367
 22
        9.29595
 32
        0.00000
 13
       23.16367
 23
        9.29595
 33
        3.04785
999
G N2 APARTMENT:G GFLOOR N2A
  0
3DFACE
  8
G_N2_APARTMENT
 62
  8
 10
       34.74551
 20
        9.29595
 30
        0.00000
 11
       23.16367
 21
        9.29595
 31
        0.00000
 12
       23.16367
 22
       16.91557
 32
        0.00000
 13
       34.74551
 23
       16.91557
 33
        0.00000
999
G N2 APARTMENT:G CEILIN N2A
  0
3DFACE
  8
G_N2_APARTMENT
 62
 15
 10
       23.16367
 20
       16.91557
 30
        3.04785
 11
       23.16367
 21
        9.29595
 31
        3.04785
 12
       34.74551
 22
        9.29595
 32
        3.04785
 13
       34.74551
 23
       16.91557
 33
        3.04785
999
G S1 APARTMENT:G SWALL S1A
  0
3DFACE
  8
G_S1_APARTMENT
 62
 43
 10
       11.58184
 20
        0.00000
 30
        3.04785
 11
       11.58184
 21
        0.00000
 31
        0.00000
 12
       23.16367
 22
        0.00000
 32
        0.00000
 13
       23.16367
 23
        0.00000
 33
        3.04785
999
G S1 APARTMENT:GWINDOW1 S S1A
  0
3DFACE
  8
G_S1_APARTMENT
 62
143
 10
       14.53475
 20
        0.00000
 30
        2.16101
 11
       14.53475
 21
        0.00000
 31
        0.97838
 12
       20.26785
 22
        0.00000
 32
        0.95400
 13
       20.15203
 23
        0.00000
 33
        2.16101
999
G S1 APARTMENT:G NIWALL S1A
  0
3DFACE
  8
G_S1_APARTMENT
 62
 43
 10
       23.16367
 20
        7.61963
 30
        3.04785
 11
       23.16367
 21
        7.61963
 31
        0.00000
 12
       11.58184
 22
        7.61963
 32
        0.00000
 13
       11.58184
 23
        7.61963
 33
        3.04785
999
G S1 APARTMENT:G EIWALL S1A
  0
3DFACE
  8
G_S1_APARTMENT
 62
 43
 10
       23.16367
 20
        0.00000
 30
        3.04785
 11
       23.16367
 21
        0.00000
 31
        0.00000
 12
       23.16367
 22
        7.61963
 32
        0.00000
 13
       23.16367
 23
        7.61963
 33
        3.04785
999
G S1 APARTMENT:iz-G EIWALL SWA
  0
3DFACE
  8
G_S1_APARTMENT
 62
 43
 10
       11.58183
 20
        7.61963
 30
        3.04785
 11
       11.58183
 21
        7.61963
 31
        0.00000
 12
       11.58183
 22
        0.00000
 32
        0.00000
 13
       11.58183
 23
        0.00000
 33
        3.04785
999
G S1 APARTMENT:G GFLOOR S1A
  0
3DFACE
  8
G_S1_APARTMENT
 62
  8
 10
       23.16367
 20
        0.00000
 30
        0.00000
 11
       11.58184
 21
        0.00000
 31
        0.00000
 12
       11.58184
 22
        7.61963
 32
        0.00000
 13
       23.16367
 23
        7.61963
 33
        0.00000
999
G S1 APARTMENT:G CEILIN S1A
  0
3DFACE
  8
G_S1_APARTMENT
 62
 15
 10
       11.58184
 20
        7.61963
 30
        3.04785
 11
       11.58184
 21
        0.00000
 31
        3.04785
 12
       23.16367
 22
        0.00000
 32
        3.04785
 13
       23.16367
 23
        7.61963
 33
        3.04785
999
G S2 APARTMENT:G SWALL S2A
  0
3DFACE
  8
G_S2_APARTMENT
 62
 43
 10
       23.16367
 20
        0.00000
 30
        3.04785
 11
       23.16367
 21
        0.00000
 31
        0.00000
 12
       34.74551
 22
        0.00000
 32
        0.00000
 13
       34.74551
 23
        0.00000
 33
        3.04785
999
G S2 APARTMENT:GWINDOW1 S S2A
  0
3DFACE
  8
G_S2_APARTMENT
 62
143
 10
       26.11658
 20
        0.00000
 30
        2.16101
 11
       26.11658
 21
        0.00000
 31
        0.97838
 12
       31.84968
 22
        0.00000
 32
        0.95400
 13
       31.73386
 23
        0.00000
 33
        2.16101
999
G S2 APARTMENT:G NIWALL S2A
  0
3DFACE
  8
G_S2_APARTMENT
 62
 43
 10
       34.74551
 20
        7.61963
 30
        3.04785
 11
       34.74551
 21
        7.61963
 31
        0.00000
 12
       23.16367
 22
        7.61963
 32
        0.00000
 13
       23.16367
 23
        7.61963
 33
        3.04785
999
G S2 APARTMENT:G EIWALL S2A
  0
3DFACE
  8
G_S2_APARTMENT
 62
 43
 10
       34.74551
 20
        0.00000
 30
        3.04785
 11
       34.74551
 21
        0.00000
 31
        0.00000
 12
       34.74551
 22
        7.61963
 32
        0.00000
 13
       34.74551
 23
        7.61963
 33
        3.04785
999
G S2 APARTMENT:iz-G EIWALL S1A
  0
3DFACE
  8
G_S2_APARTMENT
 62
 43
 10
       23.16367
 20
        7.61963
 30
        3.04785
 11
       23.16367
 21
        7.61963
 31
        0.00000
 12
       23.16367
 22
        0.00000
 32
        0.00000
 13
       23.16367
 23
        0.00000
 33
        3.04785
999
G S2 APARTMENT:G GFLOOR S2A
  0
3DFACE
  8
G_S2_APARTMENT
 62
  8
 10
       34.74551
 20
        0.00000
 30
        0.00000
 11
       23.16367
 21
        0.00000
 31
        0.00000
 12
       23.16367
 22
        7.61963
 32
        0.00000
 13
       34.74551
 23
        7.61963
 33
        0.00000
999
G S2 APARTMENT:G CEILIN S2A
  0
3DFACE
  8
G_S2_APARTMENT
 62
 15
 10
       23.16367
 20
        7.61963
 30
        3.04785
 11
       23.16367
 21
        0.00000
 31
        3.04785
 12
       34.74551
 22
        0.00000
 32
        3.04785
 13
       34.74551
 23
        7.61963
 33
        3.04785
999
M SW APARTMENT:M WWALL SWA
  0
3DFACE
  8
M_SW_APARTMENT
 62
 43
 10
        0.00000
 20
        7.61963
 30
        6.09570
 11
        0.00000
 21
        7.61963
 31
        3.04785
 12
        0.00000
 22
        0.00000
 32
        3.04785
 13
        0.00000
 23
        0.00000
 33
        6.09570
999
M SW APARTMENT:MWINDOW1 W SWA
  0
3DFACE
  8
M_SW_APARTMENT
 62
143
 10
        0.00000
 20
        5.63990
 30
        5.20886
 11
        0.00000
 21
        5.63990
 31
        4.02624
 12
        0.00000
 22
        1.86800
 32
        4.00185
 13
        0.00000
 23
        1.94420
 33
        5.20886
999
M SW APARTMENT:M SWALL SWA
  0
3DFACE
  8
M_SW_APARTMENT
 62
 43
 10
        0.00000
 20
        0.00000
 30
        6.09570
 11
        0.00000
 21
        0.00000
 31
        3.04785
 12
       11.58183
 22
        0.00000
 32
        3.04785
 13
       11.58183
 23
        0.00000
 33
        6.09570
999
M SW APARTMENT:MWINDOW1 S SWA
  0
3DFACE
  8
M_SW_APARTMENT
 62
143
 10
        2.95291
 20
        0.00000
 30
        5.20886
 11
        2.95291
 21
        0.00000
 31
        4.02624
 12
        8.68601
 22
        0.00000
 32
        4.00185
 13
        8.57019
 23
        0.00000
 33
        5.20886
999
M SW APARTMENT:M NIWALL SWA
  0
3DFACE
  8
M_SW_APARTMENT
 62
 43
 10
       11.58183
 20
        7.61963
 30
        6.09570
 11
       11.58183
 21
        7.61963
 31
        3.04785
 12
        0.00000
 22
        7.61963
 32
        3.04785
 13
        0.00000
 23
        7.61963
 33
        6.09570
999
M SW APARTMENT:M EIWALL SWA
  0
3DFACE
  8
M_SW_APARTMENT
 62
 43
 10
       11.58183
 20
        7.61963
 30
        6.09570
 11
       11.58183
 21
        0.00000
 31
        6.09570
 12
       11.58183
 22
        0.00000
 32
        3.04785
 13
       11.58183
 23
        7.61963
 33
        3.04785
999
M SW APARTMENT:M GFLOOR SWA
  0
3DFACE
  8
M_SW_APARTMENT
 62
  8
 10
       11.58183
 20
        0.00000
 30
        3.04785
 11
        0.00000
 21
        0.00000
 31
        3.04785
 12
        0.00000
 22
        7.61963
 32
        3.04785
 13
       11.58183
 23
        7.61963
 33
        3.04785
999
M SW APARTMENT:M CEILIN SWA
  0
3DFACE
  8
M_SW_APARTMENT
 62
 15
 10
        0.00000
 20
        7.61963
 30
        6.09570
 11
        0.00000
 21
        0.00000
 31
        6.09570
 12
       11.58183
 22
        0.00000
 32
        6.09570
 13
       11.58183
 23
        7.61963
 33
        6.09570
999
M NW APARTMENT:M NWALL NWA
  0
3DFACE
  8
M_NW_APARTMENT
 62
 43
 10
       11.58183
 20
       16.91557
 30
        6.09570
 11
       11.58183
 21
       16.91557
 31
        3.04785
 12
        0.00000
 22
       16.91557
 32
        3.04785
 13
        0.00000
 23
       16.91557
 33
        6.09570
999
M NW APARTMENT:MWINDOW1 N NWA
  0
3DFACE
  8
M_NW_APARTMENT
 62
143
 10
        8.62809
 20
       16.91555
 30
        5.20886
 11
        8.62809
 21
       16.91555
 31
        4.02624
 12
        2.89499
 22
       16.91555
 32
        4.00185
 13
        3.01081
 23
       16.91555
 33
        5.20886
999
M NW APARTMENT:M WWALL NWA
  0
3DFACE
  8
M_NW_APARTMENT
 62
 43
 10
        0.00000
 20
       16.91557
 30
        6.09570
 11
        0.00000
 21
       16.91557
 31
        3.04785
 12
        0.00000
 22
        9.29595
 32
        3.04785
 13
        0.00000
 23
        9.29595
 33
        6.09570
999
M NW APARTMENT:MWINDOW1 W NWA
  0
3DFACE
  8
M_NW_APARTMENT
 62
143
 10
        0.00000
 20
       14.93585
 30
        5.20886
 11
        0.00000
 21
       14.93585
 31
        4.02624
 12
        0.00000
 22
       11.16395
 32
        4.00185
 13
        0.00000
 23
       11.24015
 33
        5.20886
999
M NW APARTMENT:M SIWALL NWA
  0
3DFACE
  8
M_NW_APARTMENT
 62
 43
 10
        0.00000
 20
        9.29595
 30
        6.09570
 11
        0.00000
 21
        9.29595
 31
        3.04785
 12
       11.58183
 22
        9.29595
 32
        3.04785
 13
       11.58183
 23
        9.29595
 33
        6.09570
999
M NW APARTMENT:M EIWALL NWA
  0
3DFACE
  8
M_NW_APARTMENT
 62
 43
 10
       11.58183
 20
        9.29595
 30
        6.09570
 11
       11.58183
 21
        9.29595
 31
        3.04785
 12
       11.58183
 22
       16.91557
 32
        3.04785
 13
       11.58183
 23
       16.91557
 33
        6.09570
999
M NW APARTMENT:M GFLOOR NWA
  0
3DFACE
  8
M_NW_APARTMENT
 62
  8
 10
       11.58183
 20
        9.29595
 30
        3.04785
 11
        0.00000
 21
        9.29595
 31
        3.04785
 12
        0.00000
 22
       16.91557
 32
        3.04785
 13
       11.58183
 23
       16.91557
 33
        3.04785
999
M NW APARTMENT:M CEILIN NWA
  0
3DFACE
  8
M_NW_APARTMENT
 62
 15
 10
        0.00000
 20
       16.91557
 30
        6.09570
 11
        0.00000
 21
        9.29595
 31
        6.09570
 12
       11.58183
 22
        9.29595
 32
        6.09570
 13
       11.58183
 23
       16.91557
 33
        6.09570
999
M SE APARTMENT:M EWALL SEA
  0
3DFACE
  8
M_SE_APARTMENT
 62
 43
 10
       46.32734
 20
        0.00000
 30
        6.09570
 11
       46.32734
 21
        0.00000
 31
        3.04785
 12
       46.32734
 22
        7.61963
 32
        3.04785
 13
       46.32734
 23
        7.61963
 33
        6.09570
999
M SE APARTMENT:MWINDOW1 E SEA
  0
3DFACE
  8
M_SE_APARTMENT
 62
143
 10
       46.32731
 20
        1.94300
 30
        5.20886
 11
       46.32731
 21
        1.94300
 31
        4.02624
 12
       46.32731
 22
        5.71490
 32
        4.00185
 13
       46.32731
 23
        5.63870
 33
        5.20886
999
M SE APARTMENT:M SWALL SEA
  0
3DFACE
  8
M_SE_APARTMENT
 62
 43
 10
       34.74551
 20
        0.00000
 30
        6.09570
 11
       34.74551
 21
        0.00000
 31
        3.04785
 12
       46.32734
 22
        0.00000
 32
        3.04785
 13
       46.32734
 23
        0.00000
 33
        6.09570
999
M SE APARTMENT:MWINDOW1 S SEA
  0
3DFACE
  8
M_SE_APARTMENT
 62
143
 10
       37.69842
 20
        0.00000
 30
        5.20886
 11
       37.69842
 21
        0.00000
 31
        4.02624
 12
       43.43152
 22
        0.00000
 32
        4.00185
 13
       43.31570
 23
        0.00000
 33
        5.20886
999
M SE APARTMENT:M NIWALL SEA
  0
3DFACE
  8
M_SE_APARTMENT
 62
 43
 10
       46.32734
 20
        7.61963
 30
        6.09570
 11
       46.32734
 21
        7.61963
 31
        3.04785
 12
       34.74551
 22
        7.61963
 32
        3.04785
 13
       34.74551
 23
        7.61963
 33
        6.09570
999
M SE APARTMENT:iz-M EIWALL S2A
  0
3DFACE
  8
M_SE_APARTMENT
 62
 43
 10
       34.74551
 20
        7.61963
 30
        6.09570
 11
       34.74551
 21
        7.61963
 31
        3.04785
 12
       34.74551
 22
        0.00000
 32
        3.04785
 13
       34.74551
 23
        0.00000
 33
        6.09570
999
M SE APARTMENT:M GFLOOR SEA
  0
3DFACE
  8
M_SE_APARTMENT
 62
  8
 10
       46.32734
 20
        0.00000
 30
        3.04785
 11
       34.74551
 21
        0.00000
 31
        3.04785
 12
       34.74551
 22
        7.61963
 32
        3.04785
 13
       46.32734
 23
        7.61963
 33
        3.04785
999
M SE APARTMENT:M CEILIN SEA
  0
3DFACE
  8
M_SE_APARTMENT
 62
 15
 10
       34.74551
 20
        7.61963
 30
        6.09570
 11
       34.74551
 21
        0.00000
 31
        6.09570
 12
       46.32734
 22
        0.00000
 32
        6.09570
 13
       46.32734
 23
        7.61963
 33
        6.09570
999
M NE APARTMENT:M NWALL NEA
  0
3DFACE
  8
M_NE_APARTMENT
 62
 43
 10
       46.32734
 20
       16.91557
 30
        6.09570
 11
       46.32734
 21
       16.91557
 31
        3.04785
 12
       34.74551
 22
       16.91557
 32
        3.04785
 13
       34.74551
 23
       16.91557
 33
        6.09570
999
M NE APARTMENT:MWINDOW1 N NEA
  0
3DFACE
  8
M_NE_APARTMENT
 62
143
 10
       43.37360
 20
       16.91555
 30
        5.20886
 11
       43.37360
 21
       16.91555
 31
        4.02624
 12
       37.64049
 22
       16.91555
 32
        4.00185
 13
       37.75632
 23
       16.91555
 33
        5.20886
999
M NE APARTMENT:M EWALL NEA
  0
3DFACE
  8
M_NE_APARTMENT
 62
 43
 10
       46.32734
 20
        9.29595
 30
        6.09570
 11
       46.32734
 21
        9.29595
 31
        3.04785
 12
       46.32734
 22
       16.91557
 32
        3.04785
 13
       46.32734
 23
       16.91557
 33
        6.09570
999
M NE APARTMENT:MWINDOW1 E NEA
  0
3DFACE
  8
M_NE_APARTMENT
 62
143
 10
       46.32731
 20
       11.23895
 30
        5.20886
 11
       46.32731
 21
       11.23895
 31
        4.02624
 12
       46.32731
 22
       15.01085
 32
        4.00185
 13
       46.32731
 23
       14.93465
 33
        5.20886
999
M NE APARTMENT:M SIWALL NEA
  0
3DFACE
  8
M_NE_APARTMENT
 62
 43
 10
       34.74551
 20
        9.29595
 30
        6.09570
 11
       34.74551
 21
        9.29595
 31
        3.04785
 12
       46.32734
 22
        9.29595
 32
        3.04785
 13
       46.32734
 23
        9.29595
 33
        6.09570
999
M NE APARTMENT:iz-M EIWALL N2A
  0
3DFACE
  8
M_NE_APARTMENT
 62
 43
 10
       34.74551
 20
       16.91557
 30
        6.09570
 11
       34.74551
 21
       16.91557
 31
        3.04785
 12
       34.74551
 22
        9.29595
 32
        3.04785
 13
       34.74551
 23
        9.29595
 33
        6.09570
999
M NE APARTMENT:M GFLOOR NEA
  0
3DFACE
  8
M_NE_APARTMENT
 62
  8
 10
       46.32734
 20
        9.29595
 30
        3.04785
 11
       34.74551
 21
        9.29595
 31
        3.04785
 12
       34.74551
 22
       16.91557
 32
        3.04785
 13
       46.32734
 23
       16.91557
 33
        3.04785
999
M NE APARTMENT:M CEILIN NEA
  0
3DFACE
  8
M_NE_APARTMENT
 62
 15
 10
       34.74551
 20
       16.91557
 30
        6.09570
 11
       34.74551
 21
        9.29595
 31
        6.09570
 12
       46.32734
 22
        9.29595
 32
        6.09570
 13
       46.32734
 23
       16.91557
 33
        6.09570
999
M N1 APARTMENT:M NWALL N1A
  0
3DFACE
  8
M_N1_APARTMENT
 62
 43
 10
       23.16367
 20
       16.91557
 30
        6.09570
 11
       23.16367
 21
       16.91557
 31
        3.04785
 12
       11.58184
 22
       16.91557
 32
        3.04785
 13
       11.58184
 23
       16.91557
 33
        6.09570
999
M N1 APARTMENT:MWINDOW1 N N1A
  0
3DFACE
  8
M_N1_APARTMENT
 62
143
 10
       20.20993
 20
       16.91555
 30
        5.20886
 11
       20.20993
 21
       16.91555
 31
        4.02624
 12
       14.47682
 22
       16.91555
 32
        4.00185
 13
       14.59265
 23
       16.91555
 33
        5.20886
999
M N1 APARTMENT:M SIWALL N1A
  0
3DFACE
  8
M_N1_APARTMENT
 62
 43
 10
       11.58184
 20
        9.29595
 30
        6.09570
 11
       11.58184
 21
        9.29595
 31
        3.04785
 12
       23.16367
 22
        9.29595
 32
        3.04785
 13
       23.16367
 23
        9.29595
 33
        6.09570
999
M N1 APARTMENT:M EIWALL N1A
  0
3DFACE
  8
M_N1_APARTMENT
 62
 43
 10
       23.16367
 20
        9.29595
 30
        6.09570
 11
       23.16367
 21
        9.29595
 31
        3.04785
 12
       23.16367
 22
       16.91557
 32
        3.04785
 13
       23.16367
 23
       16.91557
 33
        6.09570
999
M N1 APARTMENT:iz-M EIWALL NWA
  0
3DFACE
  8
M_N1_APARTMENT
 62
 43
 10
       11.58183
 20
       16.91557
 30
        6.09570
 11
       11.58183
 21
       16.91557
 31
        3.04785
 12
       11.58183
 22
        9.29595
 32
        3.04785
 13
       11.58183
 23
        9.29595
 33
        6.09570
999
M N1 APARTMENT:M GFLOOR N1A
  0
3DFACE
  8
M_N1_APARTMENT
 62
  8
 10
       23.16367
 20
        9.29595
 30
        3.04785
 11
       11.58184
 21
        9.29595
 31
        3.04785
 12
       11.58184
 22
       16.91557
 32
        3.04785
 13
       23.16367
 23
       16.91557
 33
        3.04785
999
M N1 APARTMENT:M CEILIN N1A
  0
3DFACE
  8
M_N1_APARTMENT
 62
 15
 10
       11.58184
 20
       16.91557
 30
        6.09570
 11
       11.58184
 21
        9.29595
 31
        6.09570
 12
       23.16367
 22
        9.29595
 32
        6.09570
 13
       23.16367
 23
       16.91557
 33
        6.09570
999
M N2 APARTMENT:M NWALL N2A
  0
3DFACE
  8
M_N2_APARTMENT
 62
 43
 10
       34.74551
 20
       16.91557
 30
        6.09570
 11
       34.74551
 21
       16.91557
 31
        3.04785
 12
       23.16367
 22
       16.91557
 32
        3.04785
 13
       23.16367
 23
       16.91557
 33
        6.09570
999
M N2 APARTMENT:MWINDOW1 N N2A
  0
3DFACE
  8
M_N2_APARTMENT
 62
143
 10
       31.79176
 20
       16.91555
 30
        5.20886
 11
       31.79176
 21
       16.91555
 31
        4.02624
 12
       26.05866
 22
       16.91555
 32
        4.00185
 13
       26.17448
 23
       16.91555
 33
        5.20886
999
M N2 APARTMENT:M SIWALL N2A
  0
3DFACE
  8
M_N2_APARTMENT
 62
 43
 10
       23.16367
 20
        9.29595
 30
        6.09570
 11
       23.16367
 21
        9.29595
 31
        3.04785
 12
       34.74551
 22
        9.29595
 32
        3.04785
 13
       34.74551
 23
        9.29595
 33
        6.09570
999
M N2 APARTMENT:M EIWALL N2A
  0
3DFACE
  8
M_N2_APARTMENT
 62
 43
 10
       34.74551
 20
        9.29595
 30
        6.09570
 11
       34.74551
 21
        9.29595
 31
        3.04785
 12
       34.74551
 22
       16.91557
 32
        3.04785
 13
       34.74551
 23
       16.91557
 33
        6.09570
999
M N2 APARTMENT:iz-M EIWALL N1A
  0
3DFACE
  8
M_N2_APARTMENT
 62
 43
 10
       23.16367
 20
       16.91557
 30
        6.09570
 11
       23.16367
 21
       16.91557
 31
        3.04785
 12
       23.16367
 22
        9.29595
 32
        3.04785
 13
       23.16367
 23
        9.29595
 33
        6.09570
999
M N2 APARTMENT:M GFLOOR N2A
  0
3DFACE
  8
M_N2_APARTMENT
 62
  8
 10
       34.74551
 20
        9.29595
 30
        3.04785
 11
       23.16367
 21
        9.29595
 31
        3.04785
 12
       23.16367
 22
       16.91557
 32
        3.04785
 13
       34.74551
 23
       16.91557
 33
        3.04785
999
M N2 APARTMENT:M CEILIN N2A
  0
3DFACE
  8
M_N2_APARTMENT
 62
 15
 10
       23.16367
 20
       16.91557
 30
        6.09570
 11
       23.16367
 21
        9.29595
 31
        6.09570
 12
       34.74551
 22
        9.29595
 32
        6.09570
 13
       34.74551
 23
       16.91557
 33
        6.09570
999
M S1 APARTMENT:M SWALL S1A
  0
3DFACE
  8
M_S1_APARTMENT
 62
 43
 10
       11.58184
 20
        0.00000
 30
        6.09570
 11
       11.58184
 21
        0.00000
 31
        3.04785
 12
       23.16367
 22
        0.00000
 32
        3.04785
 13
       23.16367
 23
        0.00000
 33
        6.09570
999
M S1 APARTMENT:MWINDOW1 S S1A
  0
3DFACE
  8
M_S1_APARTMENT
 62
143
 10
       14.53475
 20
        0.00000
 30
        5.20886
 11
       14.53475
 21
        0.00000
 31
        4.02624
 12
       20.26785
 22
        0.00000
 32
        4.00185
 13
       20.15203
 23
        0.00000
 33
        5.20886
999
M S1 APARTMENT:M NIWALL S1A
  0
3DFACE
  8
M_S1_APARTMENT
 62
 43
 10
       23.16367
 20
        7.61963
 30
        6.09570
 11
       23.16367
 21
        7.61963
 31
        3.04785
 12
       11.58184
 22
        7.61963
 32
        3.04785
 13
       11.58184
 23
        7.61963
 33
        6.09570
999
M S1 APARTMENT:M EIWALL S1A
  0
3DFACE
  8
M_S1_APARTMENT
 62
 43
 10
       23.16367
 20
        0.00000
 30
        6.09570
 11
       23.16367
 21
        0.00000
 31
        3.04785
 12
       23.16367
 22
        7.61963
 32
        3.04785
 13
       23.16367
 23
        7.61963
 33
        6.09570
999
M S1 APARTMENT:iz-M EIWALL SWA
  0
3DFACE
  8
M_S1_APARTMENT
 62
 43
 10
       11.58183
 20
        7.61963
 30
        3.04785
 11
       11.58183
 21
        0.00000
 31
        3.04785
 12
       11.58183
 22
        0.00000
 32
        6.09570
 13
       11.58183
 23
        7.61963
 33
        6.09570
999
M S1 APARTMENT:M GFLOOR S1A
  0
3DFACE
  8
M_S1_APARTMENT
 62
  8
 10
       23.16367
 20
        0.00000
 30
        3.04785
 11
       11.58184
 21
        0.00000
 31
        3.04785
 12
       11.58184
 22
        7.61963
 32
        3.04785
 13
       23.16367
 23
        7.61963
 33
        3.04785
999
M S1 APARTMENT:M CEILIN S1A
  0
3DFACE
  8
M_S1_APARTMENT
 62
 15
 10
       11.58184
 20
        7.61963
 30
        6.09570
 11
       11.58184
 21
        0.00000
 31
        6.09570
 12
       23.16367
 22
        0.00000
 32
        6.09570
 13
       23.16367
 23
        7.61963
 33
        6.09570
999
M S2 APARTMENT:M SWALL S2A
  0
3DFACE
  8
M_S2_APARTMENT
 62
 43
 10
       23.16367
 20
        0.00000
 30
        6.09570
 11
       23.16367
 21
        0.00000
 31
        3.04785
 12
       34.74551
 22
        0.00000
 32
        3.04785
 13
       34.74551
 23
        0.00000
 33
        6.09570
999
M S2 APARTMENT:MWINDOW1 S S2A
  0
3DFACE
  8
M_S2_APARTMENT
 62
143
 10
       26.11658
 20
        0.00000
 30
        5.20886
 11
       26.11658
 21
        0.00000
 31
        4.02624
 12
       31.84968
 22
        0.00000
 32
        4.00185
 13
       31.73386
 23
        0.00000
 33
        5.20886
999
M S2 APARTMENT:M NIWALL S2A
  0
3DFACE
  8
M_S2_APARTMENT
 62
 43
 10
       34.74551
 20
        7.61963
 30
        6.09570
 11
       34.74551
 21
        7.61963
 31
        3.04785
 12
       23.16367
 22
        7.61963
 32
        3.04785
 13
       23.16367
 23
        7.61963
 33
        6.09570
999
M S2 APARTMENT:M EIWALL S2A
  0
3DFACE
  8
M_S2_APARTMENT
 62
 43
 10
       34.74551
 20
        0.00000
 30
        6.09570
 11
       34.74551
 21
        0.00000
 31
        3.04785
 12
       34.74551
 22
        7.61963
 32
        3.04785
 13
       34.74551
 23
        7.61963
 33
        6.09570
999
M S2 APARTMENT:iz-M EIWALL S1A
  0
3DFACE
  8
M_S2_APARTMENT
 62
 43
 10
       23.16367
 20
        7.61963
 30
        6.09570
 11
       23.16367
 21
        7.61963
 31
        3.04785
 12
       23.16367
 22
        0.00000
 32
        3.04785
 13
       23.16367
 23
        0.00000
 33
        6.09570
999
M S2 APARTMENT:M GFLOOR S2A
  0
3DFACE
  8
M_S2_APARTMENT
 62
  8
 10
       34.74551
 20
        0.00000
 30
        3.04785
 11
       23.16367
 21
        0.00000
 31
        3.04785
 12
       23.16367
 22
        7.61963
 32
        3.04785
 13
       34.74551
 23
        7.61963
 33
        3.04785
999
M S2 APARTMENT:M CEILIN S2A
  0
3DFACE
  8
M_S2_APARTMENT
 62
 15
 10
       23.16367
 20
        7.61963
 30
        6.09570
 11
       23.16367
 21
        0.00000
 31
        6.09570
 12
       34.74551
 22
        0.00000
 32
        6.09570
 13
       34.74551
 23
        7.61963
 33
        6.09570
999
T SW APARTMENT:T WWALL SWA
  0
3DFACE
  8
T_SW_APARTMENT
 62
 43
 10
        0.00000
 20
        7.61963
 30
       12.19141
 11
        0.00000
 21
        7.61963
 31
        9.14355
 12
        0.00000
 22
        0.00000
 32
        9.14355
 13
        0.00000
 23
        0.00000
 33
       12.19141
999
T SW APARTMENT:TWINDOW1 W SWA
  0
3DFACE
  8
T_SW_APARTMENT
 62
143
 10
        0.00000
 20
        5.63990
 30
       11.30456
 11
        0.00000
 21
        5.63990
 31
       10.12194
 12
        0.00000
 22
        1.86800
 32
       10.09755
 13
        0.00000
 23
        1.94420
 33
       11.30456
999
T SW APARTMENT:T SWALL SWA
  0
3DFACE
  8
T_SW_APARTMENT
 62
 43
 10
        0.00000
 20
        0.00000
 30
       12.19141
 11
        0.00000
 21
        0.00000
 31
        9.14355
 12
       11.58183
 22
        0.00000
 32
        9.14355
 13
       11.58183
 23
        0.00000
 33
       12.19141
999
T SW APARTMENT:TWINDOW1 S SWA
  0
3DFACE
  8
T_SW_APARTMENT
 62
143
 10
        2.95291
 20
        0.00000
 30
       11.30456
 11
        2.95291
 21
        0.00000
 31
       10.12194
 12
        8.68601
 22
        0.00000
 32
       10.09755
 13
        8.57019
 23
        0.00000
 33
       11.30456
999
T SW APARTMENT:T NIWALL SWA
  0
3DFACE
  8
T_SW_APARTMENT
 62
 43
 10
       11.58183
 20
        7.61963
 30
       12.19141
 11
       11.58183
 21
        7.61963
 31
        9.14355
 12
        0.00000
 22
        7.61963
 32
        9.14355
 13
        0.00000
 23
        7.61963
 33
       12.19141
999
T SW APARTMENT:T EIWALL SWA
  0
3DFACE
  8
T_SW_APARTMENT
 62
 43
 10
       11.58183
 20
        0.00000
 30
       12.19141
 11
       11.58183
 21
        0.00000
 31
        9.14355
 12
       11.58183
 22
        7.61963
 32
        9.14355
 13
       11.58183
 23
        7.61963
 33
       12.19141
999
T SW APARTMENT:T GFLOOR SWA
  0
3DFACE
  8
T_SW_APARTMENT
 62
  8
 10
       11.58183
 20
        0.00000
 30
        9.14355
 11
        0.00000
 21
        0.00000
 31
        9.14355
 12
        0.00000
 22
        7.61963
 32
        9.14355
 13
       11.58183
 23
        7.61963
 33
        9.14355
999
T SW APARTMENT:T ROOF SWA
  0
3DFACE
  8
T_SW_APARTMENT
 62
 15
 10
        0.00000
 20
        7.61963
 30
       12.19141
 11
        0.00000
 21
        0.00000
 31
       12.19141
 12
       11.58183
 22
        0.00000
 32
       12.19141
 13
       11.58183
 23
        7.61963
 33
       12.19141
999
T NW APARTMENT:T NWALL NWA
  0
3DFACE
  8
T_NW_APARTMENT
 62
 43
 10
       11.58183
 20
       16.91557
 30
       12.19141
 11
       11.58183
 21
       16.91557
 31
        9.14355
 12
        0.00000
 22
       16.91557
 32
        9.14355
 13
        0.00000
 23
       16.91557
 33
       12.19141
999
T NW APARTMENT:TWINDOW1 N NWA
  0
3DFACE
  8
T_NW_APARTMENT
 62
143
 10
        8.62809
 20
       16.91555
 30
       11.30456
 11
        8.62809
 21
       16.91555
 31
       10.12194
 12
        2.89499
 22
       16.91555
 32
       10.09755
 13
        3.01081
 23
       16.91555
 33
       11.30456
999
T NW APARTMENT:T WWALL NWA
  0
3DFACE
  8
T_NW_APARTMENT
 62
 43
 10
        0.00000
 20
       16.91557
 30
       12.19141
 11
        0.00000
 21
       16.91557
 31
        9.14355
 12
        0.00000
 22
        9.29595
 32
        9.14355
 13
        0.00000
 23
        9.29595
 33
       12.19141
999
T NW APARTMENT:TWINDOW1 W NWA
  0
3DFACE
  8
T_NW_APARTMENT
 62
143
 10
        0.00000
 20
       14.93585
 30
       11.30456
 11
        0.00000
 21
       14.93585
 31
       10.12194
 12
        0.00000
 22
       11.16395
 32
       10.09755
 13
        0.00000
 23
       11.24015
 33
       11.30456
999
T NW APARTMENT:T SIWALL NWA
  0
3DFACE
  8
T_NW_APARTMENT
 62
 43
 10
        0.00000
 20
        9.29595
 30
       12.19141
 11
        0.00000
 21
        9.29595
 31
        9.14355
 12
       11.58183
 22
        9.29595
 32
        9.14355
 13
       11.58183
 23
        9.29595
 33
       12.19141
999
T NW APARTMENT:T EIWALL NWA
  0
3DFACE
  8
T_NW_APARTMENT
 62
 43
 10
       11.58183
 20
        9.29595
 30
       12.19141
 11
       11.58183
 21
        9.29595
 31
        9.14355
 12
       11.58183
 22
       16.91557
 32
        9.14355
 13
       11.58183
 23
       16.91557
 33
       12.19141
999
T NW APARTMENT:T GFLOOR NWA
  0
3DFACE
  8
T_NW_APARTMENT
 62
  8
 10
       11.58183
 20
        9.29595
 30
        9.14355
 11
        0.00000
 21
        9.29595
 31
        9.14355
 12
        0.00000
 22
       16.91557
 32
        9.14355
 13
       11.58183
 23
       16.91557
 33
        9.14355
999
T NW APARTMENT:T ROOF NWA
  0
3DFACE
  8
T_NW_APARTMENT
 62
 15
 10
        0.00000
 20
       16.91557
 30
       12.19141
 11
        0.00000
 21
        9.29595
 31
       12.19141
 12
       11.58183
 22
        9.29595
 32
       12.19141
 13
       11.58183
 23
       16.91557
 33
       12.19141
999
T SE APARTMENT:T EWALL SEA
  0
3DFACE
  8
T_SE_APARTMENT
 62
 43
 10
       46.32734
 20
        0.00000
 30
       12.19141
 11
       46.32734
 21
        0.00000
 31
        9.14355
 12
       46.32734
 22
        7.61963
 32
        9.14355
 13
       46.32734
 23
        7.61963
 33
       12.19141
999
T SE APARTMENT:TWINDOW1 E SEA
  0
3DFACE
  8
T_SE_APARTMENT
 62
143
 10
       46.32731
 20
        1.94300
 30
       11.30456
 11
       46.32731
 21
        1.94300
 31
       10.12194
 12
       46.32731
 22
        5.71490
 32
       10.09755
 13
       46.32731
 23
        5.63870
 33
       11.30456
999
T SE APARTMENT:T SWALL SEA
  0
3DFACE
  8
T_SE_APARTMENT
 62
 43
 10
       34.74551
 20
        0.00000
 30
       12.19141
 11
       34.74551
 21
        0.00000
 31
        9.14355
 12
       46.32734
 22
        0.00000
 32
        9.14355
 13
       46.32734
 23
        0.00000
 33
       12.19141
999
T SE APARTMENT:TWINDOW1 S SEA
  0
3DFACE
  8
T_SE_APARTMENT
 62
143
 10
       37.69842
 20
        0.00000
 30
       11.30456
 11
       37.69842
 21
        0.00000
 31
       10.12194
 12
       43.43152
 22
        0.00000
 32
       10.09755
 13
       43.31570
 23
        0.00000
 33
       11.30456
999
T SE APARTMENT:T NIWALL SEA
  0
3DFACE
  8
T_SE_APARTMENT
 62
 43
 10
       46.32734
 20
        7.61963
 30
       12.19141
 11
       46.32734
 21
        7.61963
 31
        9.14355
 12
       34.74551
 22
        7.61963
 32
        9.14355
 13
       34.74551
 23
        7.61963
 33
       12.19141
999
T SE APARTMENT:iz-T EIWALL S2A
  0
3DFACE
  8
T_SE_APARTMENT
 62
 43
 10
       34.74551
 20
        7.61963
 30
       12.19141
 11
       34.74551
 21
        7.61963
 31
        9.14355
 12
       34.74551
 22
        0.00000
 32
        9.14355
 13
       34.74551
 23
        0.00000
 33
       12.19141
999
T SE APARTMENT:T GFLOOR SEA
  0
3DFACE
  8
T_SE_APARTMENT
 62
  8
 10
       46.32734
 20
        0.00000
 30
        9.14355
 11
       34.74551
 21
        0.00000
 31
        9.14355
 12
       34.74551
 22
        7.61963
 32
        9.14355
 13
       46.32734
 23
        7.61963
 33
        9.14355
999
T SE APARTMENT:T ROOF SEA
  0
3DFACE
  8
T_SE_APARTMENT
 62
 15
 10
       34.74551
 20
        7.61963
 30
       12.19141
 11
       34.74551
 21
        0.00000
 31
       12.19141
 12
       46.32734
 22
        0.00000
 32
       12.19141
 13
       46.32734
 23
        7.61963
 33
       12.19141
999
T NE APARTMENT:T NWALL NEA
  0
3DFACE
  8
T_NE_APARTMENT
 62
 43
 10
       46.32734
 20
       16.91557
 30
       12.19141
 11
       46.32734
 21
       16.91557
 31
        9.14355
 12
       34.74551
 22
       16.91557
 32
        9.14355
 13
       34.74551
 23
       16.91557
 33
       12.19141
999
T NE APARTMENT:TWINDOW1 N NEA
  0
3DFACE
  8
T_NE_APARTMENT
 62
143
 10
       43.37360
 20
       16.91555
 30
       11.30456
 11
       43.37360
 21
       16.91555
 31
       10.12194
 12
       37.64049
 22
       16.91555
 32
       10.09755
 13
       37.75632
 23
       16.91555
 33
       11.30456
999
T NE APARTMENT:T EWALL NEA
  0
3DFACE
  8
T_NE_APARTMENT
 62
 43
 10
       46.32734
 20
        9.29595
 30
       12.19141
 11
       46.32734
 21
        9.29595
 31
        9.14355
 12
       46.32734
 22
       16.91557
 32
        9.14355
 13
       46.32734
 23
       16.91557
 33
       12.19141
999
T NE APARTMENT:TWINDOW1 E NEA
  0
3DFACE
  8
T_NE_APARTMENT
 62
143
 10
       46.32731
 20
       11.23895
 30
       11.30456
 11
       46.32731
 21
       11.23895
 31
       10.12194
 12
       46.32731
 22
       15.01085
 32
       10.09755
 13
       46.32731
 23
       14.93465
 33
       11.30456
999
T NE APARTMENT:T SIWALL NEA
  0
3DFACE
  8
T_NE_APARTMENT
 62
 43
 10
       34.74551
 20
        9.29595
 30
       12.19141
 11
       34.74551
 21
        9.29595
 31
        9.14355
 12
       46.32734
 22
        9.29595
 32
        9.14355
 13
       46.32734
 23
        9.29595
 33
       12.19141
999
T NE APARTMENT:iz-T EIWALL N2A
  0
3DFACE
  8
T_NE_APARTMENT
 62
 43
 10
       34.74551
 20
       16.91557
 30
       12.19141
 11
       34.74551
 21
       16.91557
 31
        9.14355
 12
       34.74551
 22
        9.29595
 32
        9.14355
 13
       34.74551
 23
        9.29595
 33
       12.19141
999
T NE APARTMENT:T GFLOOR NEA
  0
3DFACE
  8
T_NE_APARTMENT
 62
  8
 10
       46.32734
 20
        9.29595
 30
        9.14355
 11
       34.74551
 21
        9.29595
 31
        9.14355
 12
       34.74551
 22
       16.91557
 32
        9.14355
 13
       46.32734
 23
       16.91557
 33
        9.14355
999
T NE APARTMENT:T ROOF NEA
  0
3DFACE
  8
T_NE_APARTMENT
 62
 15
 10
       34.74551
 20
       16.91557
 30
       12.19141
 11
       34.74551
 21
        9.29595
 31
       12.19141
 12
       46.32734
 22
        9.29595
 32
       12.19141
 13
       46.32734
 23
       16.91557
 33
       12.19141
999
T N1 APARTMENT:T NWALL N1A
  0
3DFACE
  8
T_N1_APARTMENT
 62
 43
 10
       23.16367
 20
       16.91557
 30
       12.19141
 11
       23.16367
 21
       16.91557
 31
        9.14355
 12
       11.58184
 22
       16.91557
 32
        9.14355
 13
       11.58184
 23
       16.91557
 33
       12.19141
999
T N1 APARTMENT:TWINDOW1 N N1A
  0
3DFACE
  8
T_N1_APARTMENT
 62
143
 10
       20.20993
 20
       16.91555
 30
       11.30456
 11
       20.20993
 21
       16.91555
 31
       10.12194
 12
       14.47682
 22
       16.91555
 32
       10.09755
 13
       14.59265
 23
       16.91555
 33
       11.30456
999
T N1 APARTMENT:T SIWALL N1A
  0
3DFACE
  8
T_N1_APARTMENT
 62
 43
 10
       11.58184
 20
        9.29595
 30
       12.19141
 11
       11.58184
 21
        9.29595
 31
        9.14355
 12
       23.16367
 22
        9.29595
 32
        9.14355
 13
       23.16367
 23
        9.29595
 33
       12.19141
999
T N1 APARTMENT:T EIWALL N1A
  0
3DFACE
  8
T_N1_APARTMENT
 62
 43
 10
       23.16367
 20
        9.29595
 30
       12.19141
 11
       23.16367
 21
        9.29595
 31
        9.14355
 12
       23.16367
 22
       16.91557
 32
        9.14355
 13
       23.16367
 23
       16.91557
 33
       12.19141
999
T N1 APARTMENT:iz-T EIWALL NWA
  0
3DFACE
  8
T_N1_APARTMENT
 62
 43
 10
       11.58183
 20
       16.91557
 30
       12.19141
 11
       11.58183
 21
       16.91557
 31
        9.14355
 12
       11.58183
 22
        9.29595
 32
        9.14355
 13
       11.58183
 23
        9.29595
 33
       12.19141
999
T N1 APARTMENT:T GFLOOR N1A
  0
3DFACE
  8
T_N1_APARTMENT
 62
  8
 10
       23.16367
 20
        9.29595
 30
        9.14355
 11
       11.58184
 21
        9.29595
 31
        9.14355
 12
       11.58184
 22
       16.91557
 32
        9.14355
 13
       23.16367
 23
       16.91557
 33
        9.14355
999
T N1 APARTMENT:T ROOF N1A
  0
3DFACE
  8
T_N1_APARTMENT
 62
 15
 10
       11.58184
 20
       16.91557
 30
       12.19141
 11
       11.58184
 21
        9.29595
 31
       12.19141
 12
       23.16367
 22
        9.29595
 32
       12.19141
 13
       23.16367
 23
       16.91557
 33
       12.19141
999
T N2 APARTMENT:T NWALL N2A
  0
3DFACE
  8
T_N2_APARTMENT
 62
 43
 10
       34.74551
 20
       16.91557
 30
       12.19141
 11
       34.74551
 21
       16.91557
 31
        9.14355
 12
       23.16367
 22
       16.91557
 32
        9.14355
 13
       23.16367
 23
       16.91557
 33
       12.19141
999
T N2 APARTMENT:TWINDOW1 N N2A
  0
3DFACE
  8
T_N2_APARTMENT
 62
143
 10
       31.79176
 20
       16.91555
 30
       11.30456
 11
       31.79176
 21
       16.91555
 31
       10.12194
 12
       26.05866
 22
       16.91555
 32
       10.09755
 13
       26.17448
 23
       16.91555
 33
       11.30456
999
T N2 APARTMENT:T SIWALL N2A
  0
3DFACE
  8
T_N2_APARTMENT
 62
 43
 10
       23.16367
 20
        9.29595
 30
       12.19141
 11
       23.16367
 21
        9.29595
 31
        9.14355
 12
       34.74551
 22
        9.29595
 32
        9.14355
 13
       34.74551
 23
        9.29595
 33
       12.19141
999
T N2 APARTMENT:T EIWALL N2A
  0
3DFACE
  8
T_N2_APARTMENT
 62
 43
 10
       34.74551
 20
        9.29595
 30
       12.19141
 11
       34.74551
 21
        9.29595
 31
        9.14355
 12
       34.74551
 22
       16.91557
 32
        9.14355
 13
       34.74551
 23
       16.91557
 33
       12.19141
999
T N2 APARTMENT:iz-T EIWALL N1A
  0
3DFACE
  8
T_N2_APARTMENT
 62
 43
 10
       23.16367
 20
       16.91557
 30
       12.19141
 11
       23.16367
 21
       16.91557
 31
        9.14355
 12
       23.16367
 22
        9.29595
 32
        9.14355
 13
       23.16367
 23
        9.29595
 33
       12.19141
999
T N2 APARTMENT:T GFLOOR N2A
  0
3DFACE
  8
T_N2_APARTMENT
 62
  8
 10
       34.74551
 20
        9.29595
 30
        9.14355
 11
       23.16367
 21
        9.29595
 31
        9.14355
 12
       23.16367
 22
       16.91557
 32
        9.14355
 13
       34.74551
 23
       16.91557
 33
        9.14355
999
T N2 APARTMENT:T ROOF N2A
  0
3DFACE
  8
T_N2_APARTMENT
 62
 15
 10
       23.16367
 20
       16.91557
 30
       12.19141
 11
       23.16367
 21
        9.29595
 31
       12.19141
 12
       34.74551
 22
        9.29595
 32
       12.19141
 13
       34.74551
 23
       16.91557
 33
       12.19141
999
T S1 APARTMENT:T SWALL S1A
  0
3DFACE
  8
T_S1_APARTMENT
 62
 43
 10
       11.58184
 20
        0.00000
 30
       12.19141
 11
       11.58184
 21
        0.00000
 31
        9.14355
 12
       23.16367
 22
        0.00000
 32
        9.14355
 13
       23.16367
 23
        0.00000
 33
       12.19141
999
T S1 APARTMENT:TWINDOW1 S S1A
  0
3DFACE
  8
T_S1_APARTMENT
 62
143
 10
       14.53475
 20
        0.00000
 30
       11.30456
 11
       14.53475
 21
        0.00000
 31
       10.12194
 12
       20.26785
 22
        0.00000
 32
       10.09755
 13
       20.15203
 23
        0.00000
 33
       11.30456
999
T S1 APARTMENT:T NIWALL S1A
  0
3DFACE
  8
T_S1_APARTMENT
 62
 43
 10
       23.16367
 20
        7.61963
 30
       12.19141
 11
       23.16367
 21
        7.61963
 31
        9.14355
 12
       11.58184
 22
        7.61963
 32
        9.14355
 13
       11.58184
 23
        7.61963
 33
       12.19141
999
T S1 APARTMENT:T EIWALL S1A
  0
3DFACE
  8
T_S1_APARTMENT
 62
 43
 10
       23.16367
 20
        0.00000
 30
       12.19141
 11
       23.16367
 21
        0.00000
 31
        9.14355
 12
       23.16367
 22
        7.61963
 32
        9.14355
 13
       23.16367
 23
        7.61963
 33
       12.19141
999
T S1 APARTMENT:iz-T EIWALL SWA
  0
3DFACE
  8
T_S1_APARTMENT
 62
 43
 10
       11.58183
 20
        7.61963
 30
       12.19141
 11
       11.58183
 21
        7.61963
 31
        9.14355
 12
       11.58183
 22
        0.00000
 32
        9.14355
 13
       11.58183
 23
        0.00000
 33
       12.19141
999
T S1 APARTMENT:T GFLOOR S1A
  0
3DFACE
  8
T_S1_APARTMENT
 62
  8
 10
       23.16367
 20
        0.00000
 30
        9.14355
 11
       11.58184
 21
        0.00000
 31
        9.14355
 12
       11.58184
 22
        7.61963
 32
        9.14355
 13
       23.16367
 23
        7.61963
 33
        9.14355
999
T S1 APARTMENT:T ROOF S1A
  0
3DFACE
  8
T_S1_APARTMENT
 62
 15
 10
       11.58184
 20
        7.61963
 30
       12.19141
 11
       11.58184
 21
        0.00000
 31
       12.19141
 12
       23.16367
 22
        0.00000
 32
       12.19141
 13
       23.16367
 23
        7.61963
 33
       12.19141
999
T S2 APARTMENT:T SWALL S2A
  0
3DFACE
  8
T_S2_APARTMENT
 62
 43
 10
       23.16367
 20
        0.00000
 30
       12.19141
 11
       23.16367
 21
        0.00000
 31
        9.14355
 12
       34.74551
 22
        0.00000
 32
        9.14355
 13
       34.74551
 23
        0.00000
 33
       12.19141
999
T S2 APARTMENT:TWINDOW1 S S2A
  0
3DFACE
  8
T_S2_APARTMENT
 62
143
 10
       26.11658
 20
        0.00000
 30
       11.30456
 11
       26.11658
 21
        0.00000
 31
       10.12194
 12
       31.84968
 22
        0.00000
 32
       10.09755
 13
       31.73386
 23
        0.00000
 33
       11.30456
999
T S2 APARTMENT:T NIWALL S2A
  0
3DFACE
  8
T_S2_APARTMENT
 62
 43
 10
       34.74551
 20
        7.61963
 30
       12.19141
 11
       34.74551
 21
        7.61963
 31
        9.14355
 12
       23.16367
 22
        7.61963
 32
        9.14355
 13
       23.16367
 23
        7.61963
 33
       12.19141
999
T S2 APARTMENT:T EIWALL S2A
  0
3DFACE
  8
T_S2_APARTMENT
 62
 43
 10
       34.74551
 20
        0.00000
 30
       12.19141
 11
       34.74551
 21
        0.00000
 31
        9.14355
 12
       34.74551
 22
        7.61963
 32
        9.14355
 13
       34.74551
 23
        7.61963
 33
       12.19141
999
T S2 APARTMENT:iz-T EIWALL S1A
  0
3DFACE
  8
T_S2_APARTMENT
 62
 43
 10
       23.16367
 20
        7.61963
 30
       12.19141
 11
       23.16367
 21
        7.61963
 31
        9.14355
 12
       23.16367
 22
        0.00000
 32
        9.14355
 13
       23.16367
 23
        0.00000
 33
       12.19141
999
T S2 APARTMENT:T GFLOOR S2A
  0
3DFACE
  8
T_S2_APARTMENT
 62
  8
 10
       34.74551
 20
        0.00000
 30
        9.14355
 11
       23.16367
 21
        0.00000
 31
        9.14355
 12
       23.16367
 22
        7.61963
 32
        9.14355
 13
       34.74551
 23
        7.61963
 33
        9.14355
999
T S2 APARTMENT:T ROOF S2A
  0
3DFACE
  8
T_S2_APARTMENT
 62
 15
 10
       23.16367
 20
        7.61963
 30
       12.19141
 11
       23.16367
 21
        0.00000
 31
       12.19141
 12
       34.74551
 22
        0.00000
 32
       12.19141
 13
       34.74551
 23
        7.61963
 33
       12.19141
999
T CORRIDOR:T WWALL C
  0
3DFACE
  8
T_CORRIDOR
 62
 43
 10
        0.00000
 20
        9.29595
 30
       12.19141
 11
        0.00000
 21
        9.29595
 31
        9.14355
 12
        0.00000
 22
        7.61963
 32
        9.14355
 13
        0.00000
 23
        7.61963
 33
       12.19141
999
T CORRIDOR:T EWALL C
  0
3DFACE
  8
T_CORRIDOR
 62
 43
 10
       46.32734
 20
        7.61963
 30
       12.19141
 11
       46.32734
 21
        7.61963
 31
        9.14355
 12
       46.32734
 22
        9.29595
 32
        9.14355
 13
       46.32734
 23
        9.29595
 33
       12.19141
999
T CORRIDOR:TWINDOW14
  0
3DFACE
  8
T_CORRIDOR
 62
143
 10
       46.32734
 20
        8.00063
 30
       11.31665
 11
       46.32734
 21
        8.00063
 31
       10.09755
 12
       46.32734
 22
        8.91493
 32
       10.09755
 13
       46.32734
 23
        8.91493
 33
       11.31665
999
T CORRIDOR:iz-T NIWALL SWA
  0
3DFACE
  8
T_CORRIDOR
 62
 43
 10
        0.00000
 20
        7.61963
 30
       12.19141
 11
        0.00000
 21
        7.61963
 31
        9.14355
 12
       11.58183
 22
        7.61963
 32
        9.14355
 13
       11.58183
 23
        7.61963
 33
       12.19141
999
T CORRIDOR:iz-T NIWALL S1A
  0
3DFACE
  8
T_CORRIDOR
 62
 43
 10
       11.58184
 20
        7.61963
 30
       12.19141
 11
       11.58184
 21
        7.61963
 31
        9.14355
 12
       23.16367
 22
        7.61963
 32
        9.14355
 13
       23.16367
 23
        7.61963
 33
       12.19141
999
T CORRIDOR:iz-T NIWALL S2A
  0
3DFACE
  8
T_CORRIDOR
 62
 43
 10
       23.16367
 20
        7.61963
 30
       12.19141
 11
       23.16367
 21
        7.61963
 31
        9.14355
 12
       34.74551
 22
        7.61963
 32
        9.14355
 13
       34.74551
 23
        7.61963
 33
       12.19141
999
T CORRIDOR:iz-T NIWALL SEA
  0
3DFACE
  8
T_CORRIDOR
 62
 43
 10
       34.74551
 20
        7.61963
 30
       12.19141
 11
       34.74551
 21
        7.61963
 31
        9.14355
 12
       46.32734
 22
        7.61963
 32
        9.14355
 13
       46.32734
 23
        7.61963
 33
       12.19141
999
T CORRIDOR:iz-T SIWALL NWA
  0
3DFACE
  8
T_CORRIDOR
 62
 43
 10
       11.58183
 20
        9.29595
 30
       12.19141
 11
       11.58183
 21
        9.29595
 31
        9.14355
 12
        0.00000
 22
        9.29595
 32
        9.14355
 13
        0.00000
 23
        9.29595
 33
       12.19141
999
T CORRIDOR:iz-T SIWALL N1A
  0
3DFACE
  8
T_CORRIDOR
 62
 43
 10
       23.16367
 20
        9.29595
 30
       12.19141
 11
       23.16367
 21
        9.29595
 31
        9.14355
 12
       11.58184
 22
        9.29595
 32
        9.14355
 13
       11.58184
 23
        9.29595
 33
       12.19141
999
T CORRIDOR:iz-T SIWALL N2A
  0
3DFACE
  8
T_CORRIDOR
 62
 43
 10
       34.74551
 20
        9.29595
 30
       12.19141
 11
       34.74551
 21
        9.29595
 31
        9.14355
 12
       23.16367
 22
        9.29595
 32
        9.14355
 13
       23.16367
 23
        9.29595
 33
       12.19141
999
T CORRIDOR:iz-T SIWALL NEA
  0
3DFACE
  8
T_CORRIDOR
 62
 43
 10
       46.32734
 20
        9.29595
 30
       12.19141
 11
       46.32734
 21
        9.29595
 31
        9.14355
 12
       34.74551
 22
        9.29595
 32
        9.14355
 13
       34.74551
 23
        9.29595
 33
       12.19141
999
T CORRIDOR:T FLOOR C
  0
3DFACE
  8
T_CORRIDOR
 62
  8
 10
       46.32734
 20
        7.61963
 30
        9.14355
 11
        0.00000
 21
        7.61963
 31
        9.14355
 12
        0.00000
 22
        9.29595
 32
        9.14355
 13
       46.32734
 23
        9.29595
 33
        9.14355
999
T CORRIDOR:T ROOF C
  0
3DFACE
  8
T_CORRIDOR
 62
 15
 10
        0.00000
 20
        9.29595
 30
       12.19141
 11
        0.00000
 21
        7.61963
 31
       12.19141
 12
       46.32734
 22
        7.61963
 32
       12.19141
 13
       46.32734
 23
        9.29595
 33
       12.19141
999
G CORRIDOR:G WWALL C
  0
3DFACE
  8
G_CORRIDOR
 62
 43
 10
        0.00000
 20
        9.29595
 30
        3.04785
 11
        0.00000
 21
        9.29595
 31
        0.00000
 12
        0.00000
 22
        7.61963
 32
        0.00000
 13
        0.00000
 23
        7.61963
 33
        3.04785
999
G CORRIDOR:G EWALL C
  0
3DFACE
  8
G_CORRIDOR
 62
 43
 10
       46.32734
 20
        7.61963
 30
        3.04785
 11
       46.32734
 21
        7.61963
 31
        0.00000
 12
       46.32734
 22
        9.29595
 32
        0.00000
 13
       46.32734
 23
        9.29595
 33
        3.04785
999
G CORRIDOR:ENTRANCE DOOR
  0
3DFACE
  8
G_CORRIDOR
 62
143
 10
       46.32734
 20
        7.67043
 30
        2.13350
 11
       46.32734
 21
        7.67043
 31
        0.02540
 12
       46.32734
 22
        9.24513
 32
        0.02540
 13
       46.32734
 23
        9.24513
 33
        2.13350
999
G CORRIDOR:iz-G NIWALL SWA
  0
3DFACE
  8
G_CORRIDOR
 62
 43
 10
        0.00000
 20
        7.61963
 30
        3.04785
 11
        0.00000
 21
        7.61963
 31
        0.00000
 12
       11.58183
 22
        7.61963
 32
        0.00000
 13
       11.58183
 23
        7.61963
 33
        3.04785
999
G CORRIDOR:iz-G NIWALL S1A
  0
3DFACE
  8
G_CORRIDOR
 62
 43
 10
       11.58184
 20
        7.61963
 30
        3.04785
 11
       11.58184
 21
        7.61963
 31
        0.00000
 12
       23.16367
 22
        7.61963
 32
        0.00000
 13
       23.16367
 23
        7.61963
 33
        3.04785
999
G CORRIDOR:iz-G NIWALL S2A
  0
3DFACE
  8
G_CORRIDOR
 62
 43
 10
       23.16367
 20
        7.61963
 30
        3.04785
 11
       23.16367
 21
        7.61963
 31
        0.00000
 12
       34.74551
 22
        7.61963
 32
        0.00000
 13
       34.74551
 23
        7.61963
 33
        3.04785
999
G CORRIDOR:iz-G NIWALL SEA
  0
3DFACE
  8
G_CORRIDOR
 62
 43
 10
       34.74551
 20
        7.61963
 30
        3.04785
 11
       34.74551
 21
        7.61963
 31
        0.00000
 12
       46.32734
 22
        7.61963
 32
        0.00000
 13
       46.32734
 23
        7.61963
 33
        3.04785
999
G CORRIDOR:iz-G SIWALL NWA
  0
3DFACE
  8
G_CORRIDOR
 62
 43
 10
       11.58183
 20
        9.29595
 30
        3.04785
 11
       11.58183
 21
        9.29595
 31
        0.00000
 12
        0.00000
 22
        9.29595
 32
        0.00000
 13
        0.00000
 23
        9.29595
 33
        3.04785
999
G CORRIDOR:iz-G SIWALL N1A
  0
3DFACE
  8
G_CORRIDOR
 62
 43
 10
       23.16367
 20
        9.29595
 30
        3.04785
 11
       23.16367
 21
        9.29595
 31
        0.00000
 12
       11.58184
 22
        9.29595
 32
        0.00000
 13
       11.58184
 23
        9.29595
 33
        3.04785
999
G CORRIDOR:iz-G SIWALL N2A
  0
3DFACE
  8
G_CORRIDOR
 62
 43
 10
       34.74551
 20
        9.29595
 30
        3.04785
 11
       34.74551
 21
        9.29595
 31
        0.00000
 12
       23.16367
 22
        9.29595
 32
        0.00000
 13
       23.16367
 23
        9.29595
 33
        3.04785
999
G CORRIDOR:iz-G SIWALL NEA
  0
3DFACE
  8
G_CORRIDOR
 62
 43
 10
       46.32734
 20
        9.29595
 30
        3.04785
 11
       46.32734
 21
        9.29595
 31
        0.00000
 12
       34.74551
 22
        9.29595
 32
        0.00000
 13
       34.74551
 23
        9.29595
 33
        3.04785
999
G CORRIDOR:G FLOOR C
  0
3DFACE
  8
G_CORRIDOR
 62
  8
 10
       46.32734
 20
        7.61963
 30
        0.00000
 11
        0.00000
 21
        7.61963
 31
        0.00000
 12
        0.00000
 22
        9.29595
 32
        0.00000
 13
       46.32734
 23
        9.29595
 33
        0.00000
999
G CORRIDOR:G CEILING C
  0
3DFACE
  8
G_CORRIDOR
 62
 15
 10
        0.00000
 20
        9.29595
 30
        3.04785
 11
        0.00000
 21
        7.61963
 31
        3.04785
 12
       46.32734
 22
        7.61963
 32
        3.04785
 13
       46.32734
 23
        9.29595
 33
        3.04785
999
M CORRIDOR:M WWALL C
  0
3DFACE
  8
M_CORRIDOR
 62
 43
 10
        0.00000
 20
        9.29595
 30
        6.09570
 11
        0.00000
 21
        9.29595
 31
        3.04785
 12
        0.00000
 22
        7.61963
 32
        3.04785
 13
        0.00000
 23
        7.61963
 33
        6.09570
999
M CORRIDOR:M EWALL C
  0
3DFACE
  8
M_CORRIDOR
 62
 43
 10
       46.32734
 20
        7.61963
 30
        6.09570
 11
       46.32734
 21
        7.61963
 31
        3.04785
 12
       46.32734
 22
        9.29595
 32
        3.04785
 13
       46.32734
 23
        9.29595
 33
        6.09570
999
M CORRIDOR:MWINDOW14
  0
3DFACE
  8
M_CORRIDOR
 62
143
 10
       46.32734
 20
        8.00063
 30
        5.22095
 11
       46.32734
 21
        8.00063
 31
        4.00185
 12
       46.32734
 22
        8.91493
 32
        4.00185
 13
       46.32734
 23
        8.91493
 33
        5.22095
999
M CORRIDOR:iz-M NIWALL SWA
  0
3DFACE
  8
M_CORRIDOR
 62
 43
 10
        0.00000
 20
        7.61963
 30
        6.09570
 11
        0.00000
 21
        7.61963
 31
        3.04785
 12
       11.58183
 22
        7.61963
 32
        3.04785
 13
       11.58183
 23
        7.61963
 33
        6.09570
999
M CORRIDOR:iz-M NIWALL S1A
  0
3DFACE
  8
M_CORRIDOR
 62
 43
 10
       11.58184
 20
        7.61963
 30
        6.09570
 11
       11.58184
 21
        7.61963
 31
        3.04785
 12
       23.16367
 22
        7.61963
 32
        3.04785
 13
       23.16367
 23
        7.61963
 33
        6.09570
999
M CORRIDOR:iz-M NIWALL S2A
  0
3DFACE
  8
M_CORRIDOR
 62
 43
 10
       23.16367
 20
        7.61963
 30
        6.09570
 11
       23.16367
 21
        7.61963
 31
        3.04785
 12
       34.74551
 22
        7.61963
 32
        3.04785
 13
       34.74551
 23
        7.61963
 33
        6.09570
999
M CORRIDOR:iz-M NIWALL SEA
  0
3DFACE
  8
M_CORRIDOR
 62
 43
 10
       34.74551
 20
        7.61963
 30
        6.09570
 11
       34.74551
 21
        7.61963
 31
        3.04785
 12
       46.32734
 22
        7.61963
 32
        3.04785
 13
       46.32734
 23
        7.61963
 33
        6.09570
999
M CORRIDOR:iz-M SIWALL NWA
  0
3DFACE
  8
M_CORRIDOR
 62
 43
 10
       11.58183
 20
        9.29595
 30
        6.09570
 11
       11.58183
 21
        9.29595
 31
        3.04785
 12
        0.00000
 22
        9.29595
 32
        3.04785
 13
        0.00000
 23
        9.29595
 33
        6.09570
999
M CORRIDOR:iz-M SIWALL N1A
  0
3DFACE
  8
M_CORRIDOR
 62
 43
 10
       23.16367
 20
        9.29595
 30
        6.09570
 11
       23.16367
 21
        9.29595
 31
        3.04785
 12
       11.58184
 22
        9.29595
 32
        3.04785
 13
       11.58184
 23
        9.29595
 33
        6.09570
999
M CORRIDOR:iz-M SIWALL N2A
  0
3DFACE
  8
M_CORRIDOR
 62
 43
 10
       34.74551
 20
        9.29595
 30
        6.09570
 11
       34.74551
 21
        9.29595
 31
        3.04785
 12
       23.16367
 22
        9.29595
 32
        3.04785
 13
       23.16367
 23
        9.29595
 33
        6.09570
999
M CORRIDOR:iz-M SIWALL NEA
  0
3DFACE
  8
M_CORRIDOR
 62
 43
 10
       46.32734
 20
        9.29595
 30
        6.09570
 11
       46.32734
 21
        9.29595
 31
        3.04785
 12
       34.74551
 22
        9.29595
 32
        3.04785
 13
       34.74551
 23
        9.29595
 33
        6.09570
999
M CORRIDOR:M FLOOR C
  0
3DFACE
  8
M_CORRIDOR
 62
  8
 10
       46.32734
 20
        7.61963
 30
        3.04785
 11
        0.00000
 21
        7.61963
 31
        3.04785
 12
        0.00000
 22
        9.29595
 32
        3.04785
 13
       46.32734
 23
        9.29595
 33
        3.04785
999
M CORRIDOR:M CEILING C
  0
3DFACE
  8
M_CORRIDOR
 62
 15
 10
        0.00000
 20
        9.29595
 30
        6.09570
 11
        0.00000
 21
        7.61963
 31
        6.09570
 12
       46.32734
 22
        7.61963
 32
        6.09570
 13
       46.32734
 23
        9.29595
 33
        6.09570
  0
ENDSEC
  0
EOF
