Program Version,EnergyPlus, Version 26.1.0-6f2e40d102, YMD=2026.04.14 19:01
! <Version>, Version ID
 Version, 26.1
! <Timesteps per Hour>, #TimeSteps, Minutes per TimeStep {minutes}
 Timesteps per Hour,  6, 10
! <System Convergence Limits>, Minimum System TimeStep {minutes}, Max HVAC Iterations, Minimum Plant Iterations, Maximum Plant Iterations
 System Convergence Limits, 1, 20, 2, 8
! <Simulation Control>, Do Zone Sizing, Do System Sizing, Do Plant Sizing, Do Design Days, Do Weather Simulation, Do HVAC Sizing Simulation
 Simulation Control, Yes, Yes, No, No, Yes, No
! <Performance Precision Tradeoffs>, Use Coil Direct Simulation, Zone Radiant Exchange Algorithm, Override Mode, Number of Timestep In Hour, Force Euler Method, Minimum Number of Warmup Days, Force Suppress All Begin Environment Resets, Minimum System Timestep, MaxZoneTempDiff, MaxAllowedDelTemp
 Performance Precision Tradeoffs, No, ScriptF, Normal, 6, No, 1, No, 1.0, 0.300, 2.0000E-003
! <Output Reporting Tolerances>, Tolerance for Time Heating Setpoint Not Met, Tolerance for Zone Cooling Setpoint Not Met Time
 Output Reporting Tolerances, 0.556, 0.556, 
! <Site:GroundTemperature:BuildingSurface>,Jan{C},Feb{C},Mar{C},Apr{C},May{C},Jun{C},Jul{C},Aug{C},Sep{C},Oct{C},Nov{C},Dec{C}
 Site:GroundTemperature:BuildingSurface,  18.00,  18.00,  18.00,  18.00,  18.00,  18.00,  18.00,  18.00,  18.00,  18.00,  18.00,  18.00
! <Site:GroundTemperature:FCfactorMethod>,Jan{C},Feb{C},Mar{C},Apr{C},May{C},Jun{C},Jul{C},Aug{C},Sep{C},Oct{C},Nov{C},Dec{C}
 Site:GroundTemperature:FCfactorMethod,  16.00,  11.90,   7.70,   4.00,   7.90,  13.80,  17.20,  20.80,  24.80,  26.10,  26.50,  22.50
! <Site:GroundTemperature:Shallow>,Jan{C},Feb{C},Mar{C},Apr{C},May{C},Jun{C},Jul{C},Aug{C},Sep{C},Oct{C},Nov{C},Dec{C}
 Site:GroundTemperature:Shallow,  13.00,  13.00,  13.00,  13.00,  13.00,  13.00,  13.00,  13.00,  13.00,  13.00,  13.00,  13.00
! <Site:GroundTemperature:Deep>,Jan{C},Feb{C},Mar{C},Apr{C},May{C},Jun{C},Jul{C},Aug{C},Sep{C},Oct{C},Nov{C},Dec{C}
 Site:GroundTemperature:Deep,  16.00,  16.00,  16.00,  16.00,  16.00,  16.00,  16.00,  16.00,  16.00,  16.00,  16.00,  16.00
! <Site:GroundReflectance>,Jan{dimensionless},Feb{dimensionless},Mar{dimensionless},Apr{dimensionless},May{dimensionless},Jun{dimensionless},Jul{dimensionless},Aug{dimensionless},Sep{dimensionless},Oct{dimensionless},Nov{dimensionless},Dec{dimensionless}
 Site:GroundReflectance,  0.20,  0.20,  0.20,  0.20,  0.20,  0.20,  0.20,  0.20,  0.20,  0.20,  0.20,  0.20
! <Site:GroundReflectance:SnowModifier>, Normal, Daylighting {dimensionless}
 Site:GroundReflectance:SnowModifier,   1.000,   1.000
! <Site:GroundReflectance:Snow>,Jan{dimensionless},Feb{dimensionless},Mar{dimensionless},Apr{dimensionless},May{dimensionless},Jun{dimensionless},Jul{dimensionless},Aug{dimensionless},Sep{dimensionless},Oct{dimensionless},Nov{dimensionless},Dec{dimensionless}
 Site:GroundReflectance:Snow,  0.20,  0.20,  0.20,  0.20,  0.20,  0.20,  0.20,  0.20,  0.20,  0.20,  0.20,  0.20
! <Site:GroundReflectance:Snow:Daylighting>,Jan{dimensionless},Feb{dimensionless},Mar{dimensionless},Apr{dimensionless},May{dimensionless},Jun{dimensionless},Jul{dimensionless},Aug{dimensionless},Sep{dimensionless},Oct{dimensionless},Nov{dimensionless},Dec{dimensionless}
 Site:GroundReflectance:Snow:Daylighting,  0.20,  0.20,  0.20,  0.20,  0.20,  0.20,  0.20,  0.20,  0.20,  0.20,  0.20,  0.20
! <Environment:Weather Station>,Wind Sensor Height Above Ground {m},Wind Speed Profile Exponent {},Wind Speed Profile Boundary Layer Thickness {m},Air Temperature Sensor Height Above Ground {m},Wind Speed Modifier Coefficient-Internal,Temperature Modifier Coefficient-Internal
Environment:Weather Station,10.000,0.140,270.000,1.500,1.586,9.750E-003
! <Site:Location>, Location Name, Latitude {N+/S- Deg}, Longitude {E+/W- Deg},  Time Zone Number {GMT+/-}, Elevation {m},  Standard Pressure at Elevation {Pa}, Standard RhoAir at Elevation
Site:Location,Changsha HN CHN SRC-TMYx WMO#=576870,28.11,112.79,8.00,120.00,99892,1.1873
! <Site Water Mains Temperature Information>,Calculation Method{},Water Mains Temperature Schedule Name{},Annual Average Outdoor Air Temperature{C},Maximum Difference In Monthly Average Outdoor Air Temperatures{deltaC},Fixed Default Water Mains Temperature{C}
Site Water Mains Temperature Information,Correlation,NA,16.60,22.50,NA
! <Building Information>, Building Name,North Axis {deg},Terrain,  Loads Convergence Tolerance Value,Temperature Convergence Tolerance Value,  Solar Distribution,Maximum Number of Warmup Days,Minimum Number of Warmup Days
 Building Information,ApartmentMidRise,0.000,City,4.00000E-002,0.40000,FullExterior,25,6
! <Inside Convection Algorithm>, Algorithm {Simple | TARP | CeilingDiffuser | AdaptiveConvectionAlgorithm}
Inside Convection Algorithm,TARP
! <Outside Convection Algorithm>, Algorithm {SimpleCombined | TARP | MoWitt | DOE-2 | AdaptiveConvectionAlgorithm}
Outside Convection Algorithm,TARP
! <Sky Radiance Distribution>, Value {Anisotropic}
Sky Radiance Distribution,Anisotropic
! <Zone Air Solution Algorithm>, Algorithm {ThirdOrderBackwardDifference | AnalyticalSolution | EulerMethod}, Space Heat Balance Sizing, Space Heat Balance Simulation
 Zone Air Solution Algorithm, ThirdOrderBackwardDifference, No, No
! <Zone Air Carbon Dioxide Balance Simulation>, Simulation {Yes/No}, Carbon Dioxide Concentration
 Zone Air Carbon Dioxide Balance Simulation, No,N/A
! <Zone Air Generic Contaminant Balance Simulation>, Simulation {Yes/No}, Generic Contaminant Concentration
 Zone Air Generic Contaminant Balance Simulation, No,N/A
! <Zone Air Mass Flow Balance Simulation>, Enforce Mass Balance, Adjust Zone Mixing and Return {AdjustMixingOnly | AdjustReturnOnly | AdjustMixingThenReturn | AdjustReturnThenMixing | None}, Adjust Zone Infiltration {AddInfiltration | AdjustInfiltration | None}, Infiltration Zones {MixingSourceZonesOnly | AllZones}
 Zone Air Mass Flow Balance Simulation, No,N/A,N/A,N/A
! <HVACSystemRootFindingAlgorithm>, Value {RegulaFalsi | Bisection | BisectionThenRegulaFalsi | RegulaFalsiThenBisection}
 HVACSystemRootFindingAlgorithm, RegulaFalsi
! <Environment:Site Atmospheric Variation>,Wind Speed Profile Exponent {},Wind Speed Profile Boundary Layer Thickness {m},Air Temperature Gradient Coefficient {K/m}
Environment:Site Atmospheric Variation,0.330,460.000,6.500000E-003
! <Shadowing/Sun Position Calculations Annual Simulations>, Shading Calculation Method, Shading Calculation Update Frequency Method, Shading Calculation Update Frequency {days}, Maximum Figures in Shadow Overlap Calculations {}, Polygon Clipping Algorithm, Pixel Counting Resolution, Sky Diffuse Modeling Algorithm, Output External Shading Calculation Results, Disable Self-Shading Within Shading Zone Groups, Disable Self-Shading From Shading Zone Groups to Other Zones
Shadowing/Sun Position Calculations Annual Simulations,PolygonClipping,Periodic,20,15000,SutherlandHodgman,512,SimpleSkyDiffuseModeling,No,No,No
! <Surface Geometry>,Starting Corner,Vertex Input Direction,Coordinate System,Daylight Reference Point Coordinate System,Rectangular (Simple) Surface Coordinate System
 Surface Geometry,LowerLeftCorner,Clockwise,RelativeCoordinateSystem,RelativeCoordinateSystem,RelativeToZoneOrigin
! <Surface Heat Transfer Algorithm>, Value {CTF - ConductionTransferFunction | EMPD - MoisturePenetrationDepthConductionTransferFunction | CondFD - ConductionFiniteDifference | HAMT - CombinedHeatAndMoistureFiniteElement} - Description,Inside Surface Max Temperature Limit{C}, Surface Convection Coefficient Lower Limit {W/m2-K}, Surface Convection Coefficient Upper Limit {W/m2-K}
Surface Heat Transfer Algorithm, CTF - ConductionTransferFunction,200,0.10,1000.0
! <Shading Summary>, Number of Fixed Detached Shades, Number of Building Detached Shades, Number of Attached Shades
 Shading Summary,0,0,0
! <Zone Summary>, Number of Zones, Number of Zone Surfaces, Number of SubSurfaces
 Zone Summary,27,243,39
! <Zone Information>,Zone Name,North Axis {deg},Origin X-Coordinate {m},Origin Y-Coordinate {m},Origin Z-Coordinate {m},Centroid X-Coordinate {m},Centroid Y-Coordinate {m},Centroid Z-Coordinate {m},Type,Zone Multiplier,Zone List Multiplier,Minimum X {m},Maximum X {m},Minimum Y {m},Maximum Y {m},Minimum Z {m},Maximum Z {m},Ceiling Height {m},Volume {m3},Zone Inside Convection Algorithm {Simple-Detailed-CeilingDiffuser-TrombeWall},Zone Outside Convection Algorithm {Simple-Detailed-Tarp-MoWitt-DOE-2-BLAST}, Floor Area {m2},Exterior Gross Wall Area {m2},Exterior Net Wall Area {m2},Exterior Window Area {m2}, Number of Surfaces, Number of SubSurfaces, Number of Shading SubSurfaces,  Part of Total Building Area
 Zone Information, G SW APARTMENT,0.0,0.00,0.00,0.00,5.79,3.81,1.52,1,1,1,0.00,11.58,0.00,7.62,0.00,3.05,3.05,268.97,TARP,TARP,88.25,58.52,47.28,11.24,6,2,0,Yes
 Zone Information, G NW APARTMENT,0.0,0.00,9.30,0.00,5.79,13.11,1.52,1,1,1,0.00,11.58,9.30,16.92,0.00,3.05,3.05,268.97,TARP,TARP,88.25,58.52,47.28,11.24,6,2,0,Yes
 Zone Information, OFFICE,0.0,34.75,0.00,0.00,40.54,3.81,1.52,1,1,1,34.75,46.33,0.00,7.62,0.00,3.05,3.05,268.97,TARP,TARP,88.25,58.52,47.28,11.24,6,2,0,Yes
 Zone Information, G NE APARTMENT,0.0,34.75,9.30,0.00,40.54,13.11,1.52,1,1,1,34.75,46.33,9.30,16.92,0.00,3.05,3.05,268.97,TARP,TARP,88.25,58.52,47.28,11.24,6,2,0,Yes
 Zone Information, G N1 APARTMENT,0.0,11.58,9.30,0.00,17.37,13.11,1.52,1,1,1,11.58,23.16,9.30,16.92,0.00,3.05,3.05,268.97,TARP,TARP,88.25,35.30,28.52,6.78,6,1,0,Yes
 Zone Information, G N2 APARTMENT,0.0,23.16,9.30,0.00,28.95,13.11,1.52,1,1,1,23.16,34.75,9.30,16.92,0.00,3.05,3.05,268.97,TARP,TARP,88.25,35.30,28.52,6.78,6,1,0,Yes
 Zone Information, G S1 APARTMENT,0.0,11.58,0.00,0.00,17.37,3.81,1.52,1,1,1,11.58,23.16,0.00,7.62,0.00,3.05,3.05,268.97,TARP,TARP,88.25,35.30,28.52,6.78,6,1,0,Yes
 Zone Information, G S2 APARTMENT,0.0,23.16,0.00,0.00,28.95,3.81,1.52,1,1,1,23.16,34.75,0.00,7.62,0.00,3.05,3.05,268.97,TARP,TARP,88.25,35.30,28.52,6.78,6,1,0,Yes
 Zone Information, M SW APARTMENT,0.0,0.00,0.00,3.05,5.79,3.81,4.57,1,1,2,0.00,11.58,0.00,7.62,3.05,6.10,3.05,268.97,TARP,TARP,88.25,58.52,47.28,11.24,6,2,0,Yes
 Zone Information, M NW APARTMENT,0.0,0.00,9.30,3.05,5.79,13.11,4.57,1,1,2,0.00,11.58,9.30,16.92,3.05,6.10,3.05,268.97,TARP,TARP,88.25,58.52,47.28,11.24,6,2,0,Yes
 Zone Information, M SE APARTMENT,0.0,34.75,0.00,3.05,40.54,3.81,4.57,1,1,2,34.75,46.33,0.00,7.62,3.05,6.10,3.05,268.97,TARP,TARP,88.25,58.52,47.28,11.24,6,2,0,Yes
 Zone Information, M NE APARTMENT,0.0,34.75,9.30,3.05,40.54,13.11,4.57,1,1,2,34.75,46.33,9.30,16.92,3.05,6.10,3.05,268.97,TARP,TARP,88.25,58.52,47.28,11.24,6,2,0,Yes
 Zone Information, M N1 APARTMENT,0.0,11.58,9.30,3.05,17.37,13.11,4.57,1,1,2,11.58,23.16,9.30,16.92,3.05,6.10,3.05,268.97,TARP,TARP,88.25,35.30,28.52,6.78,6,1,0,Yes
 Zone Information, M N2 APARTMENT,0.0,23.16,9.30,3.05,28.95,13.11,4.57,1,1,2,23.16,34.75,9.30,16.92,3.05,6.10,3.05,268.97,TARP,TARP,88.25,35.30,28.52,6.78,6,1,0,Yes
 Zone Information, M S1 APARTMENT,0.0,11.58,0.00,3.05,17.37,3.81,4.57,1,1,2,11.58,23.16,0.00,7.62,3.05,6.10,3.05,268.97,TARP,TARP,88.25,35.30,28.52,6.78,6,1,0,Yes
 Zone Information, M S2 APARTMENT,0.0,23.16,0.00,3.05,28.95,3.81,4.57,1,1,2,23.16,34.75,0.00,7.62,3.05,6.10,3.05,268.97,TARP,TARP,88.25,35.30,28.52,6.78,6,1,0,Yes
 Zone Information, T SW APARTMENT,0.0,0.00,0.00,9.14,5.79,3.81,10.67,1,1,1,0.00,11.58,0.00,7.62,9.14,12.19,3.05,268.97,TARP,TARP,88.25,58.52,47.28,11.24,6,2,0,Yes
 Zone Information, T NW APARTMENT,0.0,0.00,9.30,9.14,5.79,13.11,10.67,1,1,1,0.00,11.58,9.30,16.92,9.14,12.19,3.05,268.97,TARP,TARP,88.25,58.52,47.28,11.24,6,2,0,Yes
 Zone Information, T SE APARTMENT,0.0,34.75,0.00,9.14,40.54,3.81,10.67,1,1,1,34.75,46.33,0.00,7.62,9.14,12.19,3.05,268.97,TARP,TARP,88.25,58.52,47.28,11.24,6,2,0,Yes
 Zone Information, T NE APARTMENT,0.0,34.75,9.30,9.14,40.54,13.11,10.67,1,1,1,34.75,46.33,9.30,16.92,9.14,12.19,3.05,268.97,TARP,TARP,88.25,58.52,47.28,11.24,6,2,0,Yes
 Zone Information, T N1 APARTMENT,0.0,11.58,9.30,9.14,17.37,13.11,10.67,1,1,1,11.58,23.16,9.30,16.92,9.14,12.19,3.05,268.97,TARP,TARP,88.25,35.30,28.52,6.78,6,1,0,Yes
 Zone Information, T N2 APARTMENT,0.0,23.16,9.30,9.14,28.95,13.11,10.67,1,1,1,23.16,34.75,9.30,16.92,9.14,12.19,3.05,268.97,TARP,TARP,88.25,35.30,28.52,6.78,6,1,0,Yes
 Zone Information, T S1 APARTMENT,0.0,11.58,0.00,9.14,17.37,3.81,10.67,1,1,1,11.58,23.16,0.00,7.62,9.14,12.19,3.05,268.97,TARP,TARP,88.25,35.30,28.52,6.78,6,1,0,Yes
 Zone Information, T S2 APARTMENT,0.0,23.16,0.00,9.14,28.95,3.81,10.67,1,1,1,23.16,34.75,0.00,7.62,9.14,12.19,3.05,268.97,TARP,TARP,88.25,35.30,28.52,6.78,6,1,0,Yes
 Zone Information, T CORRIDOR,0.0,0.00,7.62,9.14,23.16,8.46,10.67,1,1,1,0.00,46.33,7.62,9.30,9.14,12.19,3.05,236.69,TARP,TARP,77.66,10.22,9.10,1.11,12,1,0,Yes
 Zone Information, G CORRIDOR,0.0,0.00,7.62,0.00,23.16,8.46,1.52,1,1,1,0.00,46.33,7.62,9.30,0.00,3.05,3.05,236.69,TARP,TARP,77.66,10.22,6.90,3.32,12,1,0,Yes
 Zone Information, M CORRIDOR,0.0,0.00,7.62,3.05,23.16,8.46,4.57,1,1,2,0.00,46.33,7.62,9.30,3.05,6.10,3.05,236.69,TARP,TARP,77.66,10.22,9.10,1.11,12,1,0,Yes
! <Zone Internal Gains Nominal>,Zone Name, Floor Area {m2},# Occupants,Area per Occupant {m2/person},Occupant per Area {person/m2},Interior Lighting {W/m2},Electric Load {W/m2},Gas Load {W/m2},Other Load {W/m2},Hot Water Eq {W/m2},Steam Equipment {W/m2},Sum Loads per Area {W/m2},Outdoor Controlled Baseboard Heat
 Zone Internal Gains Nominal, G SW APARTMENT,88.25,2.5,35.300,2.833E-002,17.438,6.670,0.000,0.000,0.000,0.000,24.108,No
 Zone Internal Gains Nominal, G NW APARTMENT,88.25,2.5,35.300,2.833E-002,17.438,6.670,0.000,0.000,0.000,0.000,24.108,No
 Zone Internal Gains Nominal, OFFICE,88.25,4.7,18.581,5.382E-002,11.840,6.670,0.000,0.000,0.000,0.000,18.510,No
 Zone Internal Gains Nominal, G NE APARTMENT,88.25,2.5,35.300,2.833E-002,17.438,6.670,0.000,0.000,0.000,0.000,24.108,No
 Zone Internal Gains Nominal, G N1 APARTMENT,88.25,2.5,35.300,2.833E-002,17.438,6.670,0.000,0.000,0.000,0.000,24.108,No
 Zone Internal Gains Nominal, G N2 APARTMENT,88.25,2.5,35.300,2.833E-002,17.438,6.670,0.000,0.000,0.000,0.000,24.108,No
 Zone Internal Gains Nominal, G S1 APARTMENT,88.25,2.5,35.300,2.833E-002,17.438,6.670,0.000,0.000,0.000,0.000,24.108,No
 Zone Internal Gains Nominal, G S2 APARTMENT,88.25,2.5,35.300,2.833E-002,17.438,6.670,0.000,0.000,0.000,0.000,24.108,No
 Zone Internal Gains Nominal, M SW APARTMENT,88.25,2.5,35.300,2.833E-002,17.438,6.670,0.000,0.000,0.000,0.000,24.108,No
 Zone Internal Gains Nominal, M NW APARTMENT,88.25,2.5,35.300,2.833E-002,17.438,6.670,0.000,0.000,0.000,0.000,24.108,No
 Zone Internal Gains Nominal, M SE APARTMENT,88.25,2.5,35.300,2.833E-002,17.438,6.670,0.000,0.000,0.000,0.000,24.108,No
 Zone Internal Gains Nominal, M NE APARTMENT,88.25,2.5,35.300,2.833E-002,17.438,6.670,0.000,0.000,0.000,0.000,24.108,No
 Zone Internal Gains Nominal, M N1 APARTMENT,88.25,2.5,35.300,2.833E-002,17.438,6.670,0.000,0.000,0.000,0.000,24.108,No
 Zone Internal Gains Nominal, M N2 APARTMENT,88.25,2.5,35.300,2.833E-002,17.438,6.670,0.000,0.000,0.000,0.000,24.108,No
 Zone Internal Gains Nominal, M S1 APARTMENT,88.25,2.5,35.300,2.833E-002,17.438,6.670,0.000,0.000,0.000,0.000,24.108,No
 Zone Internal Gains Nominal, M S2 APARTMENT,88.25,2.5,35.300,2.833E-002,17.438,6.670,0.000,0.000,0.000,0.000,24.108,No
 Zone Internal Gains Nominal, T SW APARTMENT,88.25,2.5,35.300,2.833E-002,17.438,6.670,0.000,0.000,0.000,0.000,24.108,No
 Zone Internal Gains Nominal, T NW APARTMENT,88.25,2.5,35.300,2.833E-002,17.438,6.670,0.000,0.000,0.000,0.000,24.108,No
 Zone Internal Gains Nominal, T SE APARTMENT,88.25,2.5,35.300,2.833E-002,17.438,6.670,0.000,0.000,0.000,0.000,24.108,No
 Zone Internal Gains Nominal, T NE APARTMENT,88.25,2.5,35.300,2.833E-002,17.438,6.670,0.000,0.000,0.000,0.000,24.108,No
 Zone Internal Gains Nominal, T N1 APARTMENT,88.25,2.5,35.300,2.833E-002,17.438,6.670,0.000,0.000,0.000,0.000,24.108,No
 Zone Internal Gains Nominal, T N2 APARTMENT,88.25,2.5,35.300,2.833E-002,17.438,6.670,0.000,0.000,0.000,0.000,24.108,No
 Zone Internal Gains Nominal, T S1 APARTMENT,88.25,2.5,35.300,2.833E-002,17.438,6.670,0.000,0.000,0.000,0.000,24.108,No
 Zone Internal Gains Nominal, T S2 APARTMENT,88.25,2.5,35.300,2.833E-002,17.438,6.670,0.000,0.000,0.000,0.000,24.108,No
 Zone Internal Gains Nominal, T CORRIDOR,77.66,4.2,18.579,5.382E-002,5.818,0.000,0.000,0.000,0.000,0.000,5.818,No
 Zone Internal Gains Nominal, G CORRIDOR,77.66,4.2,18.579,5.382E-002,5.818,105.256,0.000,0.000,0.000,0.000,111.075,No
 Zone Internal Gains Nominal, M CORRIDOR,77.66,4.2,18.579,5.382E-002,5.818,0.000,0.000,0.000,0.000,0.000,5.818,No
! <People Internal Gains Nominal>,Name,Schedule Name,Zone Name,Zone Floor Area {m2},# Zone Occupants,Number of People {},People/Floor Area {person/m2},Floor Area per person {m2/person},Fraction Radiant,Fraction Convected,Sensible Fraction Calculation,Activity level,ASHRAE 55 Warnings,Carbon Dioxide Generation Rate,Minimum Number of People for All Day Types,Maximum Number of People for All Day Types,Minimum Number of People for Weekdays, Maximum Number of People for Weekdays, Minimum Number of People for Weekends/Holidays, Maximum Number of People for Weekends /Holidays,Minimum Number of People for Summer Design Days, Maximum Number of People for Summer Design Days,Minimum Number of People for Winter Design Days, Maximum Number of People for Winter Design Days
 People Internal Gains Nominal, OCCUP_GSW,OCC_APT_SCH_WORKING_FAMILY,G SW APARTMENT,88.25,2.5,2.5,2.833E-002,35.300,1.000,0.000,AutoCalculate,ACTIVITY SCHEDULE,No,3.8200E-008,0.0,2.5,0.0,2.5,0.0,2.5,2.5,2.5,0.0,0.0,
 People Internal Gains Nominal, OCCUP_GNW,OCC_APT_SCH_STAY_HOME_FAMILY,G NW APARTMENT,88.25,2.5,2.5,2.833E-002,35.300,1.000,0.000,AutoCalculate,ACTIVITY SCHEDULE,No,3.8200E-008,0.6,2.5,0.6,2.5,0.6,2.5,0.6,2.5,0.6,2.5,
 People Internal Gains Nominal, OCCUP_OFFICE,OCC_OFF_W_SB_SCH,OFFICE,88.25,4.7,4.7,5.382E-002,18.581,1.000,0.000,AutoCalculate,ACTIVITY SCHEDULE,No,3.8200E-008,0.0,4.7,0.0,4.7,0.0,0.0,0.0,0.0,0.0,0.0,
 People Internal Gains Nominal, OCCUP_GNE,OCC_APT_SCH_STAY_HOME_FAMILY,G NE APARTMENT,88.25,2.5,2.5,2.833E-002,35.300,1.000,0.000,AutoCalculate,ACTIVITY SCHEDULE,No,3.8200E-008,0.6,2.5,0.6,2.5,0.6,2.5,0.6,2.5,0.6,2.5,
 People Internal Gains Nominal, OCCUP_GN1,OCC_APT_SCH_STAY_HOME_FAMILY,G N1 APARTMENT,88.25,2.5,2.5,2.833E-002,35.300,1.000,0.000,AutoCalculate,ACTIVITY SCHEDULE,No,3.8200E-008,0.6,2.5,0.6,2.5,0.6,2.5,0.6,2.5,0.6,2.5,
 People Internal Gains Nominal, OCCUP_GN2,OCC_APT_SCH_STAY_HOME_FAMILY,G N2 APARTMENT,88.25,2.5,2.5,2.833E-002,35.300,1.000,0.000,AutoCalculate,ACTIVITY SCHEDULE,No,3.8200E-008,0.6,2.5,0.6,2.5,0.6,2.5,0.6,2.5,0.6,2.5,
 People Internal Gains Nominal, OCCUP_GS1,OCC_APT_SCH_WORKING_FAMILY,G S1 APARTMENT,88.25,2.5,2.5,2.833E-002,35.300,1.000,0.000,AutoCalculate,ACTIVITY SCHEDULE,No,3.8200E-008,0.0,2.5,0.0,2.5,0.0,2.5,2.5,2.5,0.0,0.0,
 People Internal Gains Nominal, OCCUP_GS2,OCC_APT_SCH_WORKING_FAMILY,G S2 APARTMENT,88.25,2.5,2.5,2.833E-002,35.300,1.000,0.000,AutoCalculate,ACTIVITY SCHEDULE,No,3.8200E-008,0.0,2.5,0.0,2.5,0.0,2.5,2.5,2.5,0.0,0.0,
 People Internal Gains Nominal, OCCUP_MSW,OCC_APT_SCH_WORKING_FAMILY,M SW APARTMENT,88.25,2.5,2.5,2.833E-002,35.300,1.000,0.000,AutoCalculate,ACTIVITY SCHEDULE,No,3.8200E-008,0.0,2.5,0.0,2.5,0.0,2.5,2.5,2.5,0.0,0.0,
 People Internal Gains Nominal, OCCUP_MNW,OCC_APT_SCH_STAY_HOME_FAMILY,M NW APARTMENT,88.25,2.5,2.5,2.833E-002,35.300,1.000,0.000,AutoCalculate,ACTIVITY SCHEDULE,No,3.8200E-008,0.6,2.5,0.6,2.5,0.6,2.5,0.6,2.5,0.6,2.5,
 People Internal Gains Nominal, OCCUP_MSE,OCC_APT_SCH_WORKING_FAMILY,M SE APARTMENT,88.25,2.5,2.5,2.833E-002,35.300,1.000,0.000,AutoCalculate,ACTIVITY SCHEDULE,No,3.8200E-008,0.0,2.5,0.0,2.5,0.0,2.5,2.5,2.5,0.0,0.0,
 People Internal Gains Nominal, OCCUP_MNE,OCC_APT_SCH_STAY_HOME_FAMILY,M NE APARTMENT,88.25,2.5,2.5,2.833E-002,35.300,1.000,0.000,AutoCalculate,ACTIVITY SCHEDULE,No,3.8200E-008,0.6,2.5,0.6,2.5,0.6,2.5,0.6,2.5,0.6,2.5,
 People Internal Gains Nominal, OCCUP_MN1,OCC_APT_SCH_STAY_HOME_FAMILY,M N1 APARTMENT,88.25,2.5,2.5,2.833E-002,35.300,1.000,0.000,AutoCalculate,ACTIVITY SCHEDULE,No,3.8200E-008,0.6,2.5,0.6,2.5,0.6,2.5,0.6,2.5,0.6,2.5,
 People Internal Gains Nominal, OCCUP_MN2,OCC_APT_SCH_STAY_HOME_FAMILY,M N2 APARTMENT,88.25,2.5,2.5,2.833E-002,35.300,1.000,0.000,AutoCalculate,ACTIVITY SCHEDULE,No,3.8200E-008,0.6,2.5,0.6,2.5,0.6,2.5,0.6,2.5,0.6,2.5,
 People Internal Gains Nominal, OCCUP_MS1,OCC_APT_SCH_WORKING_FAMILY,M S1 APARTMENT,88.25,2.5,2.5,2.833E-002,35.300,1.000,0.000,AutoCalculate,ACTIVITY SCHEDULE,No,3.8200E-008,0.0,2.5,0.0,2.5,0.0,2.5,2.5,2.5,0.0,0.0,
 People Internal Gains Nominal, OCCUP_MS2,OCC_APT_SCH_WORKING_FAMILY,M S2 APARTMENT,88.25,2.5,2.5,2.833E-002,35.300,1.000,0.000,AutoCalculate,ACTIVITY SCHEDULE,No,3.8200E-008,0.0,2.5,0.0,2.5,0.0,2.5,2.5,2.5,0.0,0.0,
 People Internal Gains Nominal, OCCUP_TSW,OCC_APT_SCH_WORKING_FAMILY,T SW APARTMENT,88.25,2.5,2.5,2.833E-002,35.300,1.000,0.000,AutoCalculate,ACTIVITY SCHEDULE,No,3.8200E-008,0.0,2.5,0.0,2.5,0.0,2.5,2.5,2.5,0.0,0.0,
 People Internal Gains Nominal, OCCUP_TNW,OCC_APT_SCH_STAY_HOME_FAMILY,T NW APARTMENT,88.25,2.5,2.5,2.833E-002,35.300,1.000,0.000,AutoCalculate,ACTIVITY SCHEDULE,No,3.8200E-008,0.6,2.5,0.6,2.5,0.6,2.5,0.6,2.5,0.6,2.5,
 People Internal Gains Nominal, OCCUP_TSE,OCC_APT_SCH_WORKING_FAMILY,T SE APARTMENT,88.25,2.5,2.5,2.833E-002,35.300,1.000,0.000,AutoCalculate,ACTIVITY SCHEDULE,No,3.8200E-008,0.0,2.5,0.0,2.5,0.0,2.5,2.5,2.5,0.0,0.0,
 People Internal Gains Nominal, OCCUP_TNE,OCC_APT_SCH_STAY_HOME_FAMILY,T NE APARTMENT,88.25,2.5,2.5,2.833E-002,35.300,1.000,0.000,AutoCalculate,ACTIVITY SCHEDULE,No,3.8200E-008,0.6,2.5,0.6,2.5,0.6,2.5,0.6,2.5,0.6,2.5,
 People Internal Gains Nominal, OCCUP_TN1,OCC_APT_SCH_STAY_HOME_FAMILY,T N1 APARTMENT,88.25,2.5,2.5,2.833E-002,35.300,1.000,0.000,AutoCalculate,ACTIVITY SCHEDULE,No,3.8200E-008,0.6,2.5,0.6,2.5,0.6,2.5,0.6,2.5,0.6,2.5,
 People Internal Gains Nominal, OCCUP_TN2,OCC_APT_SCH_STAY_HOME_FAMILY,T N2 APARTMENT,88.25,2.5,2.5,2.833E-002,35.300,1.000,0.000,AutoCalculate,ACTIVITY SCHEDULE,No,3.8200E-008,0.6,2.5,0.6,2.5,0.6,2.5,0.6,2.5,0.6,2.5,
 People Internal Gains Nominal, OCCUP_TS1,OCC_APT_SCH_WORKING_FAMILY,T S1 APARTMENT,88.25,2.5,2.5,2.833E-002,35.300,1.000,0.000,AutoCalculate,ACTIVITY SCHEDULE,No,3.8200E-008,0.0,2.5,0.0,2.5,0.0,2.5,2.5,2.5,0.0,0.0,
 People Internal Gains Nominal, OCCUP_TS2,OCC_APT_SCH_WORKING_FAMILY,T S2 APARTMENT,88.25,2.5,2.5,2.833E-002,35.300,1.000,0.000,AutoCalculate,ACTIVITY SCHEDULE,No,3.8200E-008,0.0,2.5,0.0,2.5,0.0,2.5,2.5,2.5,0.0,0.0,
 People Internal Gains Nominal, OCCUP_T CORRIDOR,OCC_APT_SCH_CORRIDOR,T CORRIDOR,77.66,4.2,4.2,5.382E-002,18.579,1.000,0.000,AutoCalculate,ACTIVITY SCHEDULE,No,3.8200E-008,1.0,4.2,1.0,4.2,1.0,4.2,1.0,4.2,1.0,4.2,
 People Internal Gains Nominal, OCCUP_G CORRIDOR,OCC_APT_SCH_CORRIDOR,G CORRIDOR,77.66,4.2,4.2,5.382E-002,18.579,1.000,0.000,AutoCalculate,ACTIVITY SCHEDULE,No,3.8200E-008,1.0,4.2,1.0,4.2,1.0,4.2,1.0,4.2,1.0,4.2,
 People Internal Gains Nominal, OCCUP_M CORRIDOR,OCC_APT_SCH_CORRIDOR,M CORRIDOR,77.66,4.2,4.2,5.382E-002,18.579,1.000,0.000,AutoCalculate,ACTIVITY SCHEDULE,No,3.8200E-008,1.0,4.2,1.0,4.2,1.0,4.2,1.0,4.2,1.0,4.2,
! <Lights Internal Gains Nominal>,Name,Schedule Name,Zone Name,Zone Floor Area {m2},# Zone Occupants,Lighting Level {W},Lights/Floor Area {W/m2},Lights per person {W/person},Fraction Return Air,Fraction Radiant,Fraction Short Wave,Fraction Convected,Fraction Replaceable,End-Use, Minimum Lighting Level for All Day Types {W},Maximum Lighting Level for All Day Types {W},Minimum Lighting Level for Weekdays {W}, Maximum Lighting Level for Weekdays {W},Minimum Lighting Level for Weekends/Holidays {W}, Maximum Lighting Level for Weekends /Holidays {W},Minimum Lighting Level for Summer Design Days {W}, Maximum Lighting Level for Summer Design Days {W},Minimum Lighting Level for Winter Design Days {W}, Maximum Lighting Level for Winter Design Days {W}
 Lights Internal Gains Nominal, LIGHTING_HARDWIRED_GSW,LTG_SCH_APARTMENT_HARDWIRED,G SW APARTMENT,88.25,2.5,1453.357,16.469,581.343,0.000,0.600,0.200,0.200,1.000,LightsWired,0.000,1453.357,16.452,263.1,16.452,263.145,1453.357,1453.357,0.000,0.000
 Lights Internal Gains Nominal, LIGHTING_HARDWIRED_GNW,LTG_SCH_APARTMENT_HARDWIRED,G NW APARTMENT,88.25,2.5,1453.357,16.469,581.343,0.000,0.600,0.200,0.200,1.000,LightsWired,0.000,1453.357,16.452,263.1,16.452,263.145,1453.357,1453.357,0.000,0.000
 Lights Internal Gains Nominal, LIGHTING_HARDWIRED_OFFICE,LTG_SCH_OFFICE,OFFICE,88.25,4.7,1044.897,11.840,220.000,0.000,0.600,0.200,0.200,1.000,LightsWired,0.000,1044.897,188.081,940.4,188.081,188.081,1044.897,1044.897,0.000,0.000
 Lights Internal Gains Nominal, LIGHTING_HARDWIRED_GNE,LTG_SCH_APARTMENT_HARDWIRED,G NE APARTMENT,88.25,2.5,1453.357,16.469,581.343,0.000,0.600,0.200,0.200,1.000,LightsWired,0.000,1453.357,16.452,263.1,16.452,263.145,1453.357,1453.357,0.000,0.000
 Lights Internal Gains Nominal, LIGHTING_HARDWIRED_GN1,LTG_SCH_APARTMENT_HARDWIRED,G N1 APARTMENT,88.25,2.5,1453.357,16.469,581.343,0.000,0.600,0.200,0.200,1.000,LightsWired,0.000,1453.357,16.452,263.1,16.452,263.145,1453.357,1453.357,0.000,0.000
 Lights Internal Gains Nominal, LIGHTING_HARDWIRED_GN2,LTG_SCH_APARTMENT_HARDWIRED,G N2 APARTMENT,88.25,2.5,1453.357,16.469,581.343,0.000,0.600,0.200,0.200,1.000,LightsWired,0.000,1453.357,16.452,263.1,16.452,263.145,1453.357,1453.357,0.000,0.000
 Lights Internal Gains Nominal, LIGHTING_HARDWIRED_GS1,LTG_SCH_APARTMENT_HARDWIRED,G S1 APARTMENT,88.25,2.5,1453.357,16.469,581.343,0.000,0.600,0.200,0.200,1.000,LightsWired,0.000,1453.357,16.452,263.1,16.452,263.145,1453.357,1453.357,0.000,0.000
 Lights Internal Gains Nominal, LIGHTING_HARDWIRED_GS2,LTG_SCH_APARTMENT_HARDWIRED,G S2 APARTMENT,88.25,2.5,1453.357,16.469,581.343,0.000,0.600,0.200,0.200,1.000,LightsWired,0.000,1453.357,16.452,263.1,16.452,263.145,1453.357,1453.357,0.000,0.000
 Lights Internal Gains Nominal, LIGHTING_HARDWIRED_MSW,LTG_SCH_APARTMENT_HARDWIRED,M SW APARTMENT,88.25,2.5,1453.357,16.469,581.343,0.000,0.600,0.200,0.200,1.000,LightsWired,0.000,1453.357,16.452,263.1,16.452,263.145,1453.357,1453.357,0.000,0.000
 Lights Internal Gains Nominal, LIGHTING_HARDWIRED_MNW,LTG_SCH_APARTMENT_HARDWIRED,M NW APARTMENT,88.25,2.5,1453.357,16.469,581.343,0.000,0.600,0.200,0.200,1.000,LightsWired,0.000,1453.357,16.452,263.1,16.452,263.145,1453.357,1453.357,0.000,0.000
 Lights Internal Gains Nominal, LIGHTING_HARDWIRED_MSE,LTG_SCH_APARTMENT_HARDWIRED,M SE APARTMENT,88.25,2.5,1453.357,16.469,581.343,0.000,0.600,0.200,0.200,1.000,LightsWired,0.000,1453.357,16.452,263.1,16.452,263.145,1453.357,1453.357,0.000,0.000
 Lights Internal Gains Nominal, LIGHTING_HARDWIRED_MNE,LTG_SCH_APARTMENT_HARDWIRED,M NE APARTMENT,88.25,2.5,1453.357,16.469,581.343,0.000,0.600,0.200,0.200,1.000,LightsWired,0.000,1453.357,16.452,263.1,16.452,263.145,1453.357,1453.357,0.000,0.000
 Lights Internal Gains Nominal, LIGHTING_HARDWIRED_MN1,LTG_SCH_APARTMENT_HARDWIRED,M N1 APARTMENT,88.25,2.5,1453.357,16.469,581.343,0.000,0.600,0.200,0.200,1.000,LightsWired,0.000,1453.357,16.452,263.1,16.452,263.145,1453.357,1453.357,0.000,0.000
 Lights Internal Gains Nominal, LIGHTING_HARDWIRED_MN2,LTG_SCH_APARTMENT_HARDWIRED,M N2 APARTMENT,88.25,2.5,1453.357,16.469,581.343,0.000,0.600,0.200,0.200,1.000,LightsWired,0.000,1453.357,16.452,263.1,16.452,263.145,1453.357,1453.357,0.000,0.000
 Lights Internal Gains Nominal, LIGHTING_HARDWIRED_MS1,LTG_SCH_APARTMENT_HARDWIRED,M S1 APARTMENT,88.25,2.5,1453.357,16.469,581.343,0.000,0.600,0.200,0.200,1.000,LightsWired,0.000,1453.357,16.452,263.1,16.452,263.145,1453.357,1453.357,0.000,0.000
 Lights Internal Gains Nominal, LIGHTING_HARDWIRED_MS2,LTG_SCH_APARTMENT_HARDWIRED,M S2 APARTMENT,88.25,2.5,1453.357,16.469,581.343,0.000,0.600,0.200,0.200,1.000,LightsWired,0.000,1453.357,16.452,263.1,16.452,263.145,1453.357,1453.357,0.000,0.000
 Lights Internal Gains Nominal, LIGHTING_HARDWIRED_TSW,LTG_SCH_APARTMENT_HARDWIRED,T SW APARTMENT,88.25,2.5,1453.357,16.469,581.343,0.000,0.600,0.200,0.200,1.000,LightsWired,0.000,1453.357,16.452,263.1,16.452,263.145,1453.357,1453.357,0.000,0.000
 Lights Internal Gains Nominal, LIGHTING_HARDWIRED_TNW,LTG_SCH_APARTMENT_HARDWIRED,T NW APARTMENT,88.25,2.5,1453.357,16.469,581.343,0.000,0.600,0.200,0.200,1.000,LightsWired,0.000,1453.357,16.452,263.1,16.452,263.145,1453.357,1453.357,0.000,0.000
 Lights Internal Gains Nominal, LIGHTING_HARDWIRED_TSE,LTG_SCH_APARTMENT_HARDWIRED,T SE APARTMENT,88.25,2.5,1453.357,16.469,581.343,0.000,0.600,0.200,0.200,1.000,LightsWired,0.000,1453.357,16.452,263.1,16.452,263.145,1453.357,1453.357,0.000,0.000
 Lights Internal Gains Nominal, LIGHTING_HARDWIRED_TNE,LTG_SCH_APARTMENT_HARDWIRED,T NE APARTMENT,88.25,2.5,1453.357,16.469,581.343,0.000,0.600,0.200,0.200,1.000,LightsWired,0.000,1453.357,16.452,263.1,16.452,263.145,1453.357,1453.357,0.000,0.000
 Lights Internal Gains Nominal, LIGHTING_HARDWIRED_TN1,LTG_SCH_APARTMENT_HARDWIRED,T N1 APARTMENT,88.25,2.5,1453.357,16.469,581.343,0.000,0.600,0.200,0.200,1.000,LightsWired,0.000,1453.357,16.452,263.1,16.452,263.145,1453.357,1453.357,0.000,0.000
 Lights Internal Gains Nominal, LIGHTING_HARDWIRED_TN2,LTG_SCH_APARTMENT_HARDWIRED,T N2 APARTMENT,88.25,2.5,1453.357,16.469,581.343,0.000,0.600,0.200,0.200,1.000,LightsWired,0.000,1453.357,16.452,263.1,16.452,263.145,1453.357,1453.357,0.000,0.000
 Lights Internal Gains Nominal, LIGHTING_HARDWIRED_TS1,LTG_SCH_APARTMENT_HARDWIRED,T S1 APARTMENT,88.25,2.5,1453.357,16.469,581.343,0.000,0.600,0.200,0.200,1.000,LightsWired,0.000,1453.357,16.452,263.1,16.452,263.145,1453.357,1453.357,0.000,0.000
 Lights Internal Gains Nominal, LIGHTING_HARDWIRED_TS2,LTG_SCH_APARTMENT_HARDWIRED,T S2 APARTMENT,88.25,2.5,1453.357,16.469,581.343,0.000,0.600,0.200,0.200,1.000,LightsWired,0.000,1453.357,16.452,263.1,16.452,263.145,1453.357,1453.357,0.000,0.000
 Lights Internal Gains Nominal, LIGHTING_HARDWIRED_GC,LTG_SCH_CORRIDOR,G CORRIDOR,77.66,4.2,451.847,5.818,108.097,0.000,0.600,0.200,0.200,1.000,LightsWired,0.000,451.847,451.847,451.8,451.847,451.847,451.847,451.847,0.000,0.000
 Lights Internal Gains Nominal, LIGHTING_HARDWIRED_MC,LTG_SCH_CORRIDOR,M CORRIDOR,77.66,4.2,451.847,5.818,108.097,0.000,0.600,0.200,0.200,1.000,LightsWired,0.000,451.847,451.847,451.8,451.847,451.847,451.847,451.847,0.000,0.000
 Lights Internal Gains Nominal, LIGHTING_HARDWIRED_TC,LTG_SCH_CORRIDOR,T CORRIDOR,77.66,4.2,451.847,5.818,108.097,0.000,0.600,0.200,0.200,1.000,LightsWired,0.000,451.847,451.847,451.8,451.847,451.847,451.847,451.847,0.000,0.000
 Lights Internal Gains Nominal, LIGHTING_PLUGIN_GSW,LTG_SCH_APARTMENT_PLUGIN,G SW APARTMENT,88.25,2.5,85.491,0.969,34.197,0.000,0.600,0.200,0.200,1.000,LightsPlugIn,0.000,85.491,0.968,15.5,0.968,15.479,85.491,85.491,0.000,0.000
 Lights Internal Gains Nominal, LIGHTING_PLUGIN_GNW,LTG_SCH_APARTMENT_PLUGIN,G NW APARTMENT,88.25,2.5,85.491,0.969,34.197,0.000,0.600,0.200,0.200,1.000,LightsPlugIn,0.000,85.491,0.968,15.5,0.968,15.479,85.491,85.491,0.000,0.000
 Lights Internal Gains Nominal, LIGHTING_PLUGIN_GNE,LTG_SCH_APARTMENT_PLUGIN,G NE APARTMENT,88.25,2.5,85.491,0.969,34.197,0.000,0.600,0.200,0.200,1.000,LightsPlugIn,0.000,85.491,0.968,15.5,0.968,15.479,85.491,85.491,0.000,0.000
 Lights Internal Gains Nominal, LIGHTING_PLUGIN_GN1,LTG_SCH_APARTMENT_PLUGIN,G N1 APARTMENT,88.25,2.5,85.491,0.969,34.197,0.000,0.600,0.200,0.200,1.000,LightsPlugIn,0.000,85.491,0.968,15.5,0.968,15.479,85.491,85.491,0.000,0.000
 Lights Internal Gains Nominal, LIGHTING_PLUGIN_GN2,LTG_SCH_APARTMENT_PLUGIN,G N2 APARTMENT,88.25,2.5,85.491,0.969,34.197,0.000,0.600,0.200,0.200,1.000,LightsPlugIn,0.000,85.491,0.968,15.5,0.968,15.479,85.491,85.491,0.000,0.000
 Lights Internal Gains Nominal, LIGHTING_PLUGIN_GS1,LTG_SCH_APARTMENT_PLUGIN,G S1 APARTMENT,88.25,2.5,85.491,0.969,34.197,0.000,0.600,0.200,0.200,1.000,LightsPlugIn,0.000,85.491,0.968,15.5,0.968,15.479,85.491,85.491,0.000,0.000
 Lights Internal Gains Nominal, LIGHTING_PLUGIN_GS2,LTG_SCH_APARTMENT_PLUGIN,G S2 APARTMENT,88.25,2.5,85.491,0.969,34.197,0.000,0.600,0.200,0.200,1.000,LightsPlugIn,0.000,85.491,0.968,15.5,0.968,15.479,85.491,85.491,0.000,0.000
 Lights Internal Gains Nominal, LIGHTING_PLUGIN_MSW,LTG_SCH_APARTMENT_PLUGIN,M SW APARTMENT,88.25,2.5,85.491,0.969,34.197,0.000,0.600,0.200,0.200,1.000,LightsPlugIn,0.000,85.491,0.968,15.5,0.968,15.479,85.491,85.491,0.000,0.000
 Lights Internal Gains Nominal, LIGHTING_PLUGIN_MNW,LTG_SCH_APARTMENT_PLUGIN,M NW APARTMENT,88.25,2.5,85.491,0.969,34.197,0.000,0.600,0.200,0.200,1.000,LightsPlugIn,0.000,85.491,0.968,15.5,0.968,15.479,85.491,85.491,0.000,0.000
 Lights Internal Gains Nominal, LIGHTING_PLUGIN_MSE,LTG_SCH_APARTMENT_PLUGIN,M SE APARTMENT,88.25,2.5,85.491,0.969,34.197,0.000,0.600,0.200,0.200,1.000,LightsPlugIn,0.000,85.491,0.968,15.5,0.968,15.479,85.491,85.491,0.000,0.000
 Lights Internal Gains Nominal, LIGHTING_PLUGIN_MNE,LTG_SCH_APARTMENT_PLUGIN,M NE APARTMENT,88.25,2.5,85.491,0.969,34.197,0.000,0.600,0.200,0.200,1.000,LightsPlugIn,0.000,85.491,0.968,15.5,0.968,15.479,85.491,85.491,0.000,0.000
 Lights Internal Gains Nominal, LIGHTING_PLUGIN_MN1,LTG_SCH_APARTMENT_PLUGIN,M N1 APARTMENT,88.25,2.5,85.491,0.969,34.197,0.000,0.600,0.200,0.200,1.000,LightsPlugIn,0.000,85.491,0.968,15.5,0.968,15.479,85.491,85.491,0.000,0.000
 Lights Internal Gains Nominal, LIGHTING_PLUGIN_MN2,LTG_SCH_APARTMENT_PLUGIN,M N2 APARTMENT,88.25,2.5,85.491,0.969,34.197,0.000,0.600,0.200,0.200,1.000,LightsPlugIn,0.000,85.491,0.968,15.5,0.968,15.479,85.491,85.491,0.000,0.000
 Lights Internal Gains Nominal, LIGHTING_PLUGIN_MS1,LTG_SCH_APARTMENT_PLUGIN,M S1 APARTMENT,88.25,2.5,85.491,0.969,34.197,0.000,0.600,0.200,0.200,1.000,LightsPlugIn,0.000,85.491,0.968,15.5,0.968,15.479,85.491,85.491,0.000,0.000
 Lights Internal Gains Nominal, LIGHTING_PLUGIN_MS2,LTG_SCH_APARTMENT_PLUGIN,M S2 APARTMENT,88.25,2.5,85.491,0.969,34.197,0.000,0.600,0.200,0.200,1.000,LightsPlugIn,0.000,85.491,0.968,15.5,0.968,15.479,85.491,85.491,0.000,0.000
 Lights Internal Gains Nominal, LIGHTING_PLUGIN_TSW,LTG_SCH_APARTMENT_PLUGIN,T SW APARTMENT,88.25,2.5,85.491,0.969,34.197,0.000,0.600,0.200,0.200,1.000,LightsPlugIn,0.000,85.491,0.968,15.5,0.968,15.479,85.491,85.491,0.000,0.000
 Lights Internal Gains Nominal, LIGHTING_PLUGIN_TNW,LTG_SCH_APARTMENT_PLUGIN,T NW APARTMENT,88.25,2.5,85.491,0.969,34.197,0.000,0.600,0.200,0.200,1.000,LightsPlugIn,0.000,85.491,0.968,15.5,0.968,15.479,85.491,85.491,0.000,0.000
 Lights Internal Gains Nominal, LIGHTING_PLUGIN_TSE,LTG_SCH_APARTMENT_PLUGIN,T SE APARTMENT,88.25,2.5,85.491,0.969,34.197,0.000,0.600,0.200,0.200,1.000,LightsPlugIn,0.000,85.491,0.968,15.5,0.968,15.479,85.491,85.491,0.000,0.000
 Lights Internal Gains Nominal, LIGHTING_PLUGIN_TNE,LTG_SCH_APARTMENT_PLUGIN,T NE APARTMENT,88.25,2.5,85.491,0.969,34.197,0.000,0.600,0.200,0.200,1.000,LightsPlugIn,0.000,85.491,0.968,15.5,0.968,15.479,85.491,85.491,0.000,0.000
 Lights Internal Gains Nominal, LIGHTING_PLUGIN_TN1,LTG_SCH_APARTMENT_PLUGIN,T N1 APARTMENT,88.25,2.5,85.491,0.969,34.197,0.000,0.600,0.200,0.200,1.000,LightsPlugIn,0.000,85.491,0.968,15.5,0.968,15.479,85.491,85.491,0.000,0.000
 Lights Internal Gains Nominal, LIGHTING_PLUGIN_TN2,LTG_SCH_APARTMENT_PLUGIN,T N2 APARTMENT,88.25,2.5,85.491,0.969,34.197,0.000,0.600,0.200,0.200,1.000,LightsPlugIn,0.000,85.491,0.968,15.5,0.968,15.479,85.491,85.491,0.000,0.000
 Lights Internal Gains Nominal, LIGHTING_PLUGIN_TS1,LTG_SCH_APARTMENT_PLUGIN,T S1 APARTMENT,88.25,2.5,85.491,0.969,34.197,0.000,0.600,0.200,0.200,1.000,LightsPlugIn,0.000,85.491,0.968,15.5,0.968,15.479,85.491,85.491,0.000,0.000
 Lights Internal Gains Nominal, LIGHTING_PLUGIN_TS2,LTG_SCH_APARTMENT_PLUGIN,T S2 APARTMENT,88.25,2.5,85.491,0.969,34.197,0.000,0.600,0.200,0.200,1.000,LightsPlugIn,0.000,85.491,0.968,15.5,0.968,15.479,85.491,85.491,0.000,0.000
! <ElectricEquipment Internal Gains Nominal>,Name,Schedule Name,Zone Name,Zone Floor Area {m2},# Zone Occupants,Equipment Level {W},Equipment/Floor Area {W/m2},Equipment per person {W/person},Fraction Latent,Fraction Radiant,Fraction Lost,Fraction Convected,End-Use SubCategory,Minimum Equipment Level for All Day Types {W},Maximum Equipment Level for All Day Types {W},Minimum Equipment Level for Weekdays {W}, Maximum Equipment Level for Weekdays {W},Minimum Equipment Level for Weekends/Holidays {W}, Maximum Equipment Level for Weekends /Holidays {W},Minimum Equipment Level for Summer Design Days {W}, Maximum Equipment Level for Summer Design Days {W},Minimum Equipment Level for Winter Design Days {W}, Maximum Equipment Level for Winter Design Days {W}
 ElectricEquipment Internal Gains Nominal, PLUG_GSW,EQP_APT_SCH,G SW APARTMENT,88.25,2.5,588.623,6.670,235.449,0.000,0.500,0.000,0.500,MiscPlug,223.677,588.623,223.677,588.623,223.677,588.623,223.677,588.623,223.677,588.623
 ElectricEquipment Internal Gains Nominal, PLUG_GNW,EQP_APT_SCH,G NW APARTMENT,88.25,2.5,588.623,6.670,235.449,0.000,0.500,0.000,0.500,MiscPlug,223.677,588.623,223.677,588.623,223.677,588.623,223.677,588.623,223.677,588.623
 ElectricEquipment Internal Gains Nominal, PLUG_OFFICE,EQP_OFF_SCH,OFFICE,88.25,4.7,588.623,6.670,123.933,0.000,0.500,0.000,0.500,MiscPlug,0.000,588.623,194.245,588.623,194.245,194.245,588.623,588.623,0.000,0.000
 ElectricEquipment Internal Gains Nominal, PLUG_GNE,EQP_APT_SCH,G NE APARTMENT,88.25,2.5,588.623,6.670,235.449,0.000,0.500,0.000,0.500,MiscPlug,223.677,588.623,223.677,588.623,223.677,588.623,223.677,588.623,223.677,588.623
 ElectricEquipment Internal Gains Nominal, PLUG_GN1,EQP_APT_SCH,G N1 APARTMENT,88.25,2.5,588.623,6.670,235.449,0.000,0.500,0.000,0.500,MiscPlug,223.677,588.623,223.677,588.623,223.677,588.623,223.677,588.623,223.677,588.623
 ElectricEquipment Internal Gains Nominal, PLUG_GN2,EQP_APT_SCH,G N2 APARTMENT,88.25,2.5,588.623,6.670,235.449,0.000,0.500,0.000,0.500,MiscPlug,223.677,588.623,223.677,588.623,223.677,588.623,223.677,588.623,223.677,588.623
 ElectricEquipment Internal Gains Nominal, PLUG_GS1,EQP_APT_SCH,G S1 APARTMENT,88.25,2.5,588.623,6.670,235.449,0.000,0.500,0.000,0.500,MiscPlug,223.677,588.623,223.677,588.623,223.677,588.623,223.677,588.623,223.677,588.623
 ElectricEquipment Internal Gains Nominal, PLUG_GS2,EQP_APT_SCH,G S2 APARTMENT,88.25,2.5,588.623,6.670,235.449,0.000,0.500,0.000,0.500,MiscPlug,223.677,588.623,223.677,588.623,223.677,588.623,223.677,588.623,223.677,588.623
 ElectricEquipment Internal Gains Nominal, PLUG_MSW,EQP_APT_SCH,M SW APARTMENT,88.25,2.5,588.623,6.670,235.449,0.000,0.500,0.000,0.500,MiscPlug,223.677,588.623,223.677,588.623,223.677,588.623,223.677,588.623,223.677,588.623
 ElectricEquipment Internal Gains Nominal, PLUG_MNW,EQP_APT_SCH,M NW APARTMENT,88.25,2.5,588.623,6.670,235.449,0.000,0.500,0.000,0.500,MiscPlug,223.677,588.623,223.677,588.623,223.677,588.623,223.677,588.623,223.677,588.623
 ElectricEquipment Internal Gains Nominal, PLUG_MSE,EQP_APT_SCH,M SE APARTMENT,88.25,2.5,588.623,6.670,235.449,0.000,0.500,0.000,0.500,MiscPlug,223.677,588.623,223.677,588.623,223.677,588.623,223.677,588.623,223.677,588.623
 ElectricEquipment Internal Gains Nominal, PLUG_MNE,EQP_APT_SCH,M NE APARTMENT,88.25,2.5,588.623,6.670,235.449,0.000,0.500,0.000,0.500,MiscPlug,223.677,588.623,223.677,588.623,223.677,588.623,223.677,588.623,223.677,588.623
 ElectricEquipment Internal Gains Nominal, PLUG_MN1,EQP_APT_SCH,M N1 APARTMENT,88.25,2.5,588.623,6.670,235.449,0.000,0.500,0.000,0.500,MiscPlug,223.677,588.623,223.677,588.623,223.677,588.623,223.677,588.623,223.677,588.623
 ElectricEquipment Internal Gains Nominal, PLUG_MN2,EQP_APT_SCH,M N2 APARTMENT,88.25,2.5,588.623,6.670,235.449,0.000,0.500,0.000,0.500,MiscPlug,223.677,588.623,223.677,588.623,223.677,588.623,223.677,588.623,223.677,588.623
 ElectricEquipment Internal Gains Nominal, PLUG_MS1,EQP_APT_SCH,M S1 APARTMENT,88.25,2.5,588.623,6.670,235.449,0.000,0.500,0.000,0.500,MiscPlug,223.677,588.623,223.677,588.623,223.677,588.623,223.677,588.623,223.677,588.623
 ElectricEquipment Internal Gains Nominal, PLUG_MS2,EQP_APT_SCH,M S2 APARTMENT,88.25,2.5,588.623,6.670,235.449,0.000,0.500,0.000,0.500,MiscPlug,223.677,588.623,223.677,588.623,223.677,588.623,223.677,588.623,223.677,588.623
 ElectricEquipment Internal Gains Nominal, PLUG_TSW,EQP_APT_SCH,T SW APARTMENT,88.25,2.5,588.623,6.670,235.449,0.000,0.500,0.000,0.500,MiscPlug,223.677,588.623,223.677,588.623,223.677,588.623,223.677,588.623,223.677,588.623
 ElectricEquipment Internal Gains Nominal, PLUG_TNW,EQP_APT_SCH,T NW APARTMENT,88.25,2.5,588.623,6.670,235.449,0.000,0.500,0.000,0.500,MiscPlug,223.677,588.623,223.677,588.623,223.677,588.623,223.677,588.623,223.677,588.623
 ElectricEquipment Internal Gains Nominal, PLUG_TSE,EQP_APT_SCH,T SE APARTMENT,88.25,2.5,588.623,6.670,235.449,0.000,0.500,0.000,0.500,MiscPlug,223.677,588.623,223.677,588.623,223.677,588.623,223.677,588.623,223.677,588.623
 ElectricEquipment Internal Gains Nominal, PLUG_TNE,EQP_APT_SCH,T NE APARTMENT,88.25,2.5,588.623,6.670,235.449,0.000,0.500,0.000,0.500,MiscPlug,223.677,588.623,223.677,588.623,223.677,588.623,223.677,588.623,223.677,588.623
 ElectricEquipment Internal Gains Nominal, PLUG_TN1,EQP_APT_SCH,T N1 APARTMENT,88.25,2.5,588.623,6.670,235.449,0.000,0.500,0.000,0.500,MiscPlug,223.677,588.623,223.677,588.623,223.677,588.623,223.677,588.623,223.677,588.623
 ElectricEquipment Internal Gains Nominal, PLUG_TN2,EQP_APT_SCH,T N2 APARTMENT,88.25,2.5,588.623,6.670,235.449,0.000,0.500,0.000,0.500,MiscPlug,223.677,588.623,223.677,588.623,223.677,588.623,223.677,588.623,223.677,588.623
 ElectricEquipment Internal Gains Nominal, PLUG_TS1,EQP_APT_SCH,T S1 APARTMENT,88.25,2.5,588.623,6.670,235.449,0.000,0.500,0.000,0.500,MiscPlug,223.677,588.623,223.677,588.623,223.677,588.623,223.677,588.623,223.677,588.623
 ElectricEquipment Internal Gains Nominal, PLUG_TS2,EQP_APT_SCH,T S2 APARTMENT,88.25,2.5,588.623,6.670,235.449,0.000,0.500,0.000,0.500,MiscPlug,223.677,588.623,223.677,588.623,223.677,588.623,223.677,588.623,223.677,588.623
 ElectricEquipment Internal Gains Nominal, G CORRIDOR_ELEVATORS_EQUIP,BLDG_ELEVATORS,G CORRIDOR,77.66,4.2,8012.150,103.170,1916.782,0.000,0.000,0.950,5.000E-002,ElevatorLift,961.458,4006.075,961.458,4006.075,961.458,4006.075,4006.075,4006.075,961.458,961.458
 ElectricEquipment Internal Gains Nominal, ELEVATORS_LIGHTS_FAN,ELEV_LIGHT_FAN_SCH_24_7,G CORRIDOR,77.66,4.2,162.000,2.086,38.756,0.000,0.000,0.950,5.000E-002,ElevatorLightsFan,162.000,162.000,162.000,162.000,162.000,162.000,162.000,162.000,162.000,162.000
! <Water Heater Information>,Type,Name,Volume {m3},Maximum Capacity {W},Standard Rated Recovery Efficiency, Standard Rated Energy Factor
! <Surface Convection Parameters>, Surface Name, Outside Model Assignment, Outside Area [m2], Outside Perimeter [m], Outside Height [m], Inside Model Assignment, Inside Height [m], Inside Perimeter Envelope [m], Inside Hydraulic Diameter [m], Window Wall Ratio, Window Location, Near Radiant {Yes/No}, Has Active HVAC {Yes/No}
Surface Convection Parameters,G SWALL SWA,0,423.60,117.04,12.19,0,3.05,19.20,9.19,0.19,3,No,No
Surface Convection Parameters,GWINDOW1 S SWA,0,423.60,117.04,12.19,0,3.05,19.20,9.19,0.19,2,No,No
Surface Convection Parameters,G WWALL SWA,0,154.67,58.21,12.19,0,3.05,19.20,9.19,0.19,3,No,No
Surface Convection Parameters,GWINDOW1 W SWA,0,154.67,58.21,12.19,0,3.05,19.20,9.19,0.19,2,No,No
Surface Convection Parameters,G NIWALL SWA,0,0.00,0.00,0.00,0,3.05,19.20,9.19,0.19,0,No,No
Surface Convection Parameters,G EIWALL SWA,0,0.00,0.00,0.00,0,3.05,19.20,9.19,0.19,0,No,No
Surface Convection Parameters,G GFLOOR SWA,0,0.00,0.00,0.00,0,3.05,19.20,9.19,0.19,0,No,No
Surface Convection Parameters,G CEILIN SWA,0,0.00,0.00,0.00,0,3.05,19.20,9.19,0.19,0,No,No
Surface Convection Parameters,G INTERNALMASS SWA,0,0.00,0.00,0.00,0,3.05,19.20,9.19,0.19,0,No,No
Surface Convection Parameters,G NWALL NWA,0,423.60,123.02,12.19,0,3.05,19.20,9.19,0.19,3,No,No
Surface Convection Parameters,GWINDOW1 N NWA,0,423.60,123.02,12.19,0,3.05,19.20,9.19,0.19,2,No,No
Surface Convection Parameters,G WWALL NWA,0,154.67,58.21,12.19,0,3.05,19.20,9.19,0.19,3,No,No
Surface Convection Parameters,GWINDOW1 W NWA,0,154.67,58.21,12.19,0,3.05,19.20,9.19,0.19,2,No,No
Surface Convection Parameters,G SIWALL NWA,0,0.00,0.00,0.00,0,3.05,19.20,9.19,0.19,0,No,No
Surface Convection Parameters,G EIWALL NWA,0,0.00,0.00,0.00,0,3.05,19.20,9.19,0.19,0,No,No
Surface Convection Parameters,G GFLOOR NWA,0,0.00,0.00,0.00,0,3.05,19.20,9.19,0.19,0,No,No
Surface Convection Parameters,G CEILIN NWA,0,0.00,0.00,0.00,0,3.05,19.20,9.19,0.19,0,No,No
Surface Convection Parameters,G INTERNALMASS NWA,0,0.00,0.00,0.00,0,3.05,19.20,9.19,0.19,0,No,No
Surface Convection Parameters,G SWALL SEA,0,423.60,117.04,12.19,0,3.05,19.20,9.19,0.19,3,No,No
Surface Convection Parameters,GWINDOW1 S SEA,0,423.60,117.04,12.19,0,3.05,19.20,9.19,0.19,2,No,No
Surface Convection Parameters,G EWALL SEA,0,154.67,123.02,12.19,0,3.05,19.20,9.19,0.19,3,No,No
Surface Convection Parameters,GWINDOW1 E SEA,0,154.67,123.02,12.19,0,3.05,19.20,9.19,0.19,2,No,No
Surface Convection Parameters,G NIWALL SEA,0,0.00,0.00,0.00,0,3.05,19.20,9.19,0.19,0,No,No
Surface Convection Parameters,iz-G EIWALL S2A,0,0.00,0.00,0.00,0,3.05,19.20,9.19,0.19,0,No,No
Surface Convection Parameters,G GFLOOR SEA,0,0.00,0.00,0.00,0,3.05,19.20,9.19,0.19,0,No,No
Surface Convection Parameters,G CEILIN SEA,0,0.00,0.00,0.00,0,3.05,19.20,9.19,0.19,0,No,No
Surface Convection Parameters,G INTERNALMASS SEA,0,0.00,0.00,0.00,0,3.05,19.20,9.19,0.19,0,No,No
Surface Convection Parameters,G NWALL NEA,0,423.60,123.02,12.19,0,3.05,19.20,9.19,0.19,3,No,No
Surface Convection Parameters,GWINDOW1 N NEA,0,423.60,123.02,12.19,0,3.05,19.20,9.19,0.19,2,No,No
Surface Convection Parameters,G EWALL NEA,0,154.67,123.02,12.19,0,3.05,19.20,9.19,0.19,3,No,No
Surface Convection Parameters,GWINDOW1 E NEA,0,154.67,123.02,12.19,0,3.05,19.20,9.19,0.19,2,No,No
Surface Convection Parameters,G SIWALL NEA,0,0.00,0.00,0.00,0,3.05,19.20,9.19,0.19,0,No,No
Surface Convection Parameters,iz-G EIWALL N2A,0,0.00,0.00,0.00,0,3.05,19.20,9.19,0.19,0,No,No
Surface Convection Parameters,G GFLOOR NEA,0,0.00,0.00,0.00,0,3.05,19.20,9.19,0.19,0,No,No
Surface Convection Parameters,G CEILIN NEA,0,0.00,0.00,0.00,0,3.05,19.20,9.19,0.19,0,No,No
Surface Convection Parameters,G INTERNALMASS NEA,0,0.00,0.00,0.00,0,3.05,19.20,9.19,0.19,0,No,No
Surface Convection Parameters,G NWALL N1A,0,423.60,123.02,12.19,0,3.05,11.58,9.19,0.19,3,No,No
Surface Convection Parameters,GWINDOW1 N N1A,0,423.60,123.02,12.19,0,3.05,11.58,9.19,0.19,2,No,No
Surface Convection Parameters,G SIWALL N1A,0,0.00,0.00,0.00,0,3.05,11.58,9.19,0.19,0,No,No
Surface Convection Parameters,G EIWALL N1A,0,0.00,0.00,0.00,0,3.05,11.58,9.19,0.19,0,No,No
Surface Convection Parameters,iz-G EIWALL NWA,0,0.00,0.00,0.00,0,3.05,11.58,9.19,0.19,0,No,No
Surface Convection Parameters,G GFLOOR N1A,0,0.00,0.00,0.00,0,3.05,11.58,9.19,0.19,0,No,No
Surface Convection Parameters,G CEILIN N1A,0,0.00,0.00,0.00,0,3.05,11.58,9.19,0.19,0,No,No
Surface Convection Parameters,G INTERNALMASS N1A,0,0.00,0.00,0.00,0,3.05,11.58,9.19,0.19,0,No,No
Surface Convection Parameters,G NWALL N2A,0,423.60,123.02,12.19,0,3.05,11.58,9.19,0.19,3,No,No
Surface Convection Parameters,GWINDOW1 N N2A,0,423.60,123.02,12.19,0,3.05,11.58,9.19,0.19,2,No,No
Surface Convection Parameters,G SIWALL N2A,0,0.00,0.00,0.00,0,3.05,11.58,9.19,0.19,0,No,No
Surface Convection Parameters,G EIWALL N2A,0,0.00,0.00,0.00,0,3.05,11.58,9.19,0.19,0,No,No
Surface Convection Parameters,iz-G EIWALL N1A,0,0.00,0.00,0.00,0,3.05,11.58,9.19,0.19,0,No,No
Surface Convection Parameters,G GFLOOR N2A,0,0.00,0.00,0.00,0,3.05,11.58,9.19,0.19,0,No,No
Surface Convection Parameters,G CEILIN N2A,0,0.00,0.00,0.00,0,3.05,11.58,9.19,0.19,0,No,No
Surface Convection Parameters,G INTERNALMASS N2A,0,0.00,0.00,0.00,0,3.05,11.58,9.19,0.19,0,No,No
Surface Convection Parameters,G SWALL S1A,0,423.60,117.04,12.19,0,3.05,11.58,9.19,0.19,3,No,No
Surface Convection Parameters,GWINDOW1 S S1A,0,423.60,117.04,12.19,0,3.05,11.58,9.19,0.19,2,No,No
Surface Convection Parameters,G NIWALL S1A,0,0.00,0.00,0.00,0,3.05,11.58,9.19,0.19,0,No,No
Surface Convection Parameters,G EIWALL S1A,0,0.00,0.00,0.00,0,3.05,11.58,9.19,0.19,0,No,No
Surface Convection Parameters,iz-G EIWALL SWA,0,0.00,0.00,0.00,0,3.05,11.58,9.19,0.19,0,No,No
Surface Convection Parameters,G GFLOOR S1A,0,0.00,0.00,0.00,0,3.05,11.58,9.19,0.19,0,No,No
Surface Convection Parameters,G CEILIN S1A,0,0.00,0.00,0.00,0,3.05,11.58,9.19,0.19,0,No,No
Surface Convection Parameters,G INTERNALMASS S1A,0,0.00,0.00,0.00,0,3.05,11.58,9.19,0.19,0,No,No
Surface Convection Parameters,G SWALL S2A,0,423.60,117.04,12.19,0,3.05,11.58,9.19,0.19,3,No,No
Surface Convection Parameters,GWINDOW1 S S2A,0,423.60,117.04,12.19,0,3.05,11.58,9.19,0.19,2,No,No
Surface Convection Parameters,G NIWALL S2A,0,0.00,0.00,0.00,0,3.05,11.58,9.19,0.19,0,No,No
Surface Convection Parameters,G EIWALL S2A,0,0.00,0.00,0.00,0,3.05,11.58,9.19,0.19,0,No,No
Surface Convection Parameters,iz-G EIWALL S1A,0,0.00,0.00,0.00,0,3.05,11.58,9.19,0.19,0,No,No
Surface Convection Parameters,G GFLOOR S2A,0,0.00,0.00,0.00,0,3.05,11.58,9.19,0.19,0,No,No
Surface Convection Parameters,G CEILIN S2A,0,0.00,0.00,0.00,0,3.05,11.58,9.19,0.19,0,No,No
Surface Convection Parameters,G INTERNALMASS S2A,0,0.00,0.00,0.00,0,3.05,11.58,9.19,0.19,0,No,No
Surface Convection Parameters,M WWALL SWA,0,154.67,58.21,12.19,0,3.05,19.20,9.19,0.19,3,No,No
Surface Convection Parameters,MWINDOW1 W SWA,0,154.67,58.21,12.19,0,3.05,19.20,9.19,0.19,2,No,No
Surface Convection Parameters,M SWALL SWA,0,423.60,117.04,12.19,0,3.05,19.20,9.19,0.19,3,No,No
Surface Convection Parameters,MWINDOW1 S SWA,0,423.60,117.04,12.19,0,3.05,19.20,9.19,0.19,2,No,No
Surface Convection Parameters,M NIWALL SWA,0,0.00,0.00,0.00,0,3.05,19.20,9.19,0.19,0,No,No
Surface Convection Parameters,M EIWALL SWA,0,0.00,0.00,0.00,0,3.05,19.20,9.19,0.19,0,No,No
Surface Convection Parameters,M GFLOOR SWA,0,0.00,0.00,0.00,0,3.05,19.20,9.19,0.19,0,No,No
Surface Convection Parameters,M CEILIN SWA,0,0.00,0.00,0.00,0,3.05,19.20,9.19,0.19,0,No,No
Surface Convection Parameters,M INTERNALMASS SWA,0,0.00,0.00,0.00,0,3.05,19.20,9.19,0.19,0,No,No
Surface Convection Parameters,M NWALL NWA,0,423.60,123.02,12.19,0,3.05,19.20,9.19,0.19,3,No,No
Surface Convection Parameters,MWINDOW1 N NWA,0,423.60,123.02,12.19,0,3.05,19.20,9.19,0.19,2,No,No
Surface Convection Parameters,M WWALL NWA,0,154.67,58.21,12.19,0,3.05,19.20,9.19,0.19,3,No,No
Surface Convection Parameters,MWINDOW1 W NWA,0,154.67,58.21,12.19,0,3.05,19.20,9.19,0.19,2,No,No
Surface Convection Parameters,M SIWALL NWA,0,0.00,0.00,0.00,0,3.05,19.20,9.19,0.19,0,No,No
Surface Convection Parameters,M EIWALL NWA,0,0.00,0.00,0.00,0,3.05,19.20,9.19,0.19,0,No,No
Surface Convection Parameters,M GFLOOR NWA,0,0.00,0.00,0.00,0,3.05,19.20,9.19,0.19,0,No,No
Surface Convection Parameters,M CEILIN NWA,0,0.00,0.00,0.00,0,3.05,19.20,9.19,0.19,0,No,No
Surface Convection Parameters,M INTERNALMASS NWA,0,0.00,0.00,0.00,0,3.05,19.20,9.19,0.19,0,No,No
Surface Convection Parameters,M EWALL SEA,0,154.67,123.02,12.19,0,3.05,19.20,9.19,0.19,3,No,No
Surface Convection Parameters,MWINDOW1 E SEA,0,154.67,123.02,12.19,0,3.05,19.20,9.19,0.19,2,No,No
Surface Convection Parameters,M SWALL SEA,0,423.60,117.04,12.19,0,3.05,19.20,9.19,0.19,3,No,No
Surface Convection Parameters,MWINDOW1 S SEA,0,423.60,117.04,12.19,0,3.05,19.20,9.19,0.19,2,No,No
Surface Convection Parameters,M NIWALL SEA,0,0.00,0.00,0.00,0,3.05,19.20,9.19,0.19,0,No,No
Surface Convection Parameters,iz-M EIWALL S2A,0,0.00,0.00,0.00,0,3.05,19.20,9.19,0.19,0,No,No
Surface Convection Parameters,M GFLOOR SEA,0,0.00,0.00,0.00,0,3.05,19.20,9.19,0.19,0,No,No
Surface Convection Parameters,M CEILIN SEA,0,0.00,0.00,0.00,0,3.05,19.20,9.19,0.19,0,No,No
Surface Convection Parameters,M INTERNALMASS SEA,0,0.00,0.00,0.00,0,3.05,19.20,9.19,0.19,0,No,No
Surface Convection Parameters,M NWALL NEA,0,423.60,123.02,12.19,0,3.05,19.20,9.19,0.19,3,No,No
Surface Convection Parameters,MWINDOW1 N NEA,0,423.60,123.02,12.19,0,3.05,19.20,9.19,0.19,2,No,No
Surface Convection Parameters,M EWALL NEA,0,154.67,123.02,12.19,0,3.05,19.20,9.19,0.19,3,No,No
Surface Convection Parameters,MWINDOW1 E NEA,0,154.67,123.02,12.19,0,3.05,19.20,9.19,0.19,2,No,No
Surface Convection Parameters,M SIWALL NEA,0,0.00,0.00,0.00,0,3.05,19.20,9.19,0.19,0,No,No
Surface Convection Parameters,iz-M EIWALL N2A,0,0.00,0.00,0.00,0,3.05,19.20,9.19,0.19,0,No,No
Surface Convection Parameters,M GFLOOR NEA,0,0.00,0.00,0.00,0,3.05,19.20,9.19,0.19,0,No,No
Surface Convection Parameters,M CEILIN NEA,0,0.00,0.00,0.00,0,3.05,19.20,9.19,0.19,0,No,No
Surface Convection Parameters,M INTERNALMASS NEA,0,0.00,0.00,0.00,0,3.05,19.20,9.19,0.19,0,No,No
Surface Convection Parameters,M NWALL N1A,0,423.60,123.02,12.19,0,3.05,11.58,9.19,0.19,3,No,No
Surface Convection Parameters,MWINDOW1 N N1A,0,423.60,123.02,12.19,0,3.05,11.58,9.19,0.19,2,No,No
Surface Convection Parameters,M SIWALL N1A,0,0.00,0.00,0.00,0,3.05,11.58,9.19,0.19,0,No,No
Surface Convection Parameters,M EIWALL N1A,0,0.00,0.00,0.00,0,3.05,11.58,9.19,0.19,0,No,No
Surface Convection Parameters,iz-M EIWALL NWA,0,0.00,0.00,0.00,0,3.05,11.58,9.19,0.19,0,No,No
Surface Convection Parameters,M GFLOOR N1A,0,0.00,0.00,0.00,0,3.05,11.58,9.19,0.19,0,No,No
Surface Convection Parameters,M CEILIN N1A,0,0.00,0.00,0.00,0,3.05,11.58,9.19,0.19,0,No,No
Surface Convection Parameters,M INTERNALMASS N1A,0,0.00,0.00,0.00,0,3.05,11.58,9.19,0.19,0,No,No
Surface Convection Parameters,M NWALL N2A,0,423.60,123.02,12.19,0,3.05,11.58,9.19,0.19,3,No,No
Surface Convection Parameters,MWINDOW1 N N2A,0,423.60,123.02,12.19,0,3.05,11.58,9.19,0.19,2,No,No
Surface Convection Parameters,M SIWALL N2A,0,0.00,0.00,0.00,0,3.05,11.58,9.19,0.19,0,No,No
Surface Convection Parameters,M EIWALL N2A,0,0.00,0.00,0.00,0,3.05,11.58,9.19,0.19,0,No,No
Surface Convection Parameters,iz-M EIWALL N1A,0,0.00,0.00,0.00,0,3.05,11.58,9.19,0.19,0,No,No
Surface Convection Parameters,M GFLOOR N2A,0,0.00,0.00,0.00,0,3.05,11.58,9.19,0.19,0,No,No
Surface Convection Parameters,M CEILIN N2A,0,0.00,0.00,0.00,0,3.05,11.58,9.19,0.19,0,No,No
Surface Convection Parameters,M INTERNALMASS N2A,0,0.00,0.00,0.00,0,3.05,11.58,9.19,0.19,0,No,No
Surface Convection Parameters,M SWALL S1A,0,423.60,117.04,12.19,0,3.05,11.58,9.19,0.19,3,No,No
Surface Convection Parameters,MWINDOW1 S S1A,0,423.60,117.04,12.19,0,3.05,11.58,9.19,0.19,2,No,No
Surface Convection Parameters,M NIWALL S1A,0,0.00,0.00,0.00,0,3.05,11.58,9.19,0.19,0,No,No
Surface Convection Parameters,M EIWALL S1A,0,0.00,0.00,0.00,0,3.05,11.58,9.19,0.19,0,No,No
Surface Convection Parameters,iz-M EIWALL SWA,0,0.00,0.00,0.00,0,3.05,11.58,9.19,0.19,0,No,No
Surface Convection Parameters,M GFLOOR S1A,0,0.00,0.00,0.00,0,3.05,11.58,9.19,0.19,0,No,No
Surface Convection Parameters,M CEILIN S1A,0,0.00,0.00,0.00,0,3.05,11.58,9.19,0.19,0,No,No
Surface Convection Parameters,M INTERNALMASS S1A,0,0.00,0.00,0.00,0,3.05,11.58,9.19,0.19,0,No,No
Surface Convection Parameters,M SWALL S2A,0,423.60,117.04,12.19,0,3.05,11.58,9.19,0.19,3,No,No
Surface Convection Parameters,MWINDOW1 S S2A,0,423.60,117.04,12.19,0,3.05,11.58,9.19,0.19,2,No,No
Surface Convection Parameters,M NIWALL S2A,0,0.00,0.00,0.00,0,3.05,11.58,9.19,0.19,0,No,No
Surface Convection Parameters,M EIWALL S2A,0,0.00,0.00,0.00,0,3.05,11.58,9.19,0.19,0,No,No
Surface Convection Parameters,iz-M EIWALL S1A,0,0.00,0.00,0.00,0,3.05,11.58,9.19,0.19,0,No,No
Surface Convection Parameters,M GFLOOR S2A,0,0.00,0.00,0.00,0,3.05,11.58,9.19,0.19,0,No,No
Surface Convection Parameters,M CEILIN S2A,0,0.00,0.00,0.00,0,3.05,11.58,9.19,0.19,0,No,No
Surface Convection Parameters,M INTERNALMASS S2A,0,0.00,0.00,0.00,0,3.05,11.58,9.19,0.19,0,No,No
Surface Convection Parameters,T WWALL SWA,0,154.67,58.21,12.19,0,3.05,19.20,9.19,0.19,3,No,No
Surface Convection Parameters,TWINDOW1 W SWA,0,154.67,58.21,12.19,0,3.05,19.20,9.19,0.19,2,No,No
Surface Convection Parameters,T SWALL SWA,0,423.60,117.04,12.19,0,3.05,19.20,9.19,0.19,3,No,No
Surface Convection Parameters,TWINDOW1 S SWA,0,423.60,117.04,12.19,0,3.05,19.20,9.19,0.19,2,No,No
Surface Convection Parameters,T NIWALL SWA,0,0.00,0.00,0.00,0,3.05,19.20,9.19,0.19,0,No,No
Surface Convection Parameters,T EIWALL SWA,0,0.00,0.00,0.00,0,3.05,19.20,9.19,0.19,0,No,No
Surface Convection Parameters,T GFLOOR SWA,0,0.00,0.00,0.00,0,3.05,19.20,9.19,0.19,0,No,No
Surface Convection Parameters,T ROOF SWA,0,783.65,126.49,0.00,0,3.05,19.20,9.19,0.19,0,No,No
Surface Convection Parameters,T INTERNALMASS SWA,0,0.00,0.00,0.00,0,3.05,19.20,9.19,0.19,0,No,No
Surface Convection Parameters,T NWALL NWA,0,423.60,123.02,12.19,0,3.05,19.20,9.19,0.19,3,No,No
Surface Convection Parameters,TWINDOW1 N NWA,0,423.60,123.02,12.19,0,3.05,19.20,9.19,0.19,2,No,No
Surface Convection Parameters,T WWALL NWA,0,154.67,58.21,12.19,0,3.05,19.20,9.19,0.19,3,No,No
Surface Convection Parameters,TWINDOW1 W NWA,0,154.67,58.21,12.19,0,3.05,19.20,9.19,0.19,2,No,No
Surface Convection Parameters,T SIWALL NWA,0,0.00,0.00,0.00,0,3.05,19.20,9.19,0.19,0,No,No
Surface Convection Parameters,T EIWALL NWA,0,0.00,0.00,0.00,0,3.05,19.20,9.19,0.19,0,No,No
Surface Convection Parameters,T GFLOOR NWA,0,0.00,0.00,0.00,0,3.05,19.20,9.19,0.19,0,No,No
Surface Convection Parameters,T ROOF NWA,0,783.65,126.49,0.00,0,3.05,19.20,9.19,0.19,0,No,No
Surface Convection Parameters,T INTERNALMASS NWA,0,0.00,0.00,0.00,0,3.05,19.20,9.19,0.19,0,No,No
Surface Convection Parameters,T EWALL SEA,0,154.67,123.02,12.19,0,3.05,19.20,9.19,0.19,3,No,No
Surface Convection Parameters,TWINDOW1 E SEA,0,154.67,123.02,12.19,0,3.05,19.20,9.19,0.19,2,No,No
Surface Convection Parameters,T SWALL SEA,0,423.60,117.04,12.19,0,3.05,19.20,9.19,0.19,3,No,No
Surface Convection Parameters,TWINDOW1 S SEA,0,423.60,117.04,12.19,0,3.05,19.20,9.19,0.19,2,No,No
Surface Convection Parameters,T NIWALL SEA,0,0.00,0.00,0.00,0,3.05,19.20,9.19,0.19,0,No,No
Surface Convection Parameters,iz-T EIWALL S2A,0,0.00,0.00,0.00,0,3.05,19.20,9.19,0.19,0,No,No
Surface Convection Parameters,T GFLOOR SEA,0,0.00,0.00,0.00,0,3.05,19.20,9.19,0.19,0,No,No
Surface Convection Parameters,T ROOF SEA,0,783.65,126.49,0.00,0,3.05,19.20,9.19,0.19,0,No,No
Surface Convection Parameters,T INTERNALMASS SEA,0,0.00,0.00,0.00,0,3.05,19.20,9.19,0.19,0,No,No
Surface Convection Parameters,T NWALL NEA,0,423.60,123.02,12.19,0,3.05,19.20,9.19,0.19,3,No,No
Surface Convection Parameters,TWINDOW1 N NEA,0,423.60,123.02,12.19,0,3.05,19.20,9.19,0.19,2,No,No
Surface Convection Parameters,T EWALL NEA,0,154.67,123.02,12.19,0,3.05,19.20,9.19,0.19,3,No,No
Surface Convection Parameters,TWINDOW1 E NEA,0,154.67,123.02,12.19,0,3.05,19.20,9.19,0.19,2,No,No
Surface Convection Parameters,T SIWALL NEA,0,0.00,0.00,0.00,0,3.05,19.20,9.19,0.19,0,No,No
Surface Convection Parameters,iz-T EIWALL N2A,0,0.00,0.00,0.00,0,3.05,19.20,9.19,0.19,0,No,No
Surface Convection Parameters,T GFLOOR NEA,0,0.00,0.00,0.00,0,3.05,19.20,9.19,0.19,0,No,No
Surface Convection Parameters,T ROOF NEA,0,783.65,126.49,0.00,0,3.05,19.20,9.19,0.19,0,No,No
Surface Convection Parameters,T INTERNALMASS NEA,0,0.00,0.00,0.00,0,3.05,19.20,9.19,0.19,0,No,No
Surface Convection Parameters,T NWALL N1A,0,423.60,123.02,12.19,0,3.05,11.58,9.19,0.19,3,No,No
Surface Convection Parameters,TWINDOW1 N N1A,0,423.60,123.02,12.19,0,3.05,11.58,9.19,0.19,2,No,No
Surface Convection Parameters,T SIWALL N1A,0,0.00,0.00,0.00,0,3.05,11.58,9.19,0.19,0,No,No
Surface Convection Parameters,T EIWALL N1A,0,0.00,0.00,0.00,0,3.05,11.58,9.19,0.19,0,No,No
Surface Convection Parameters,iz-T EIWALL NWA,0,0.00,0.00,0.00,0,3.05,11.58,9.19,0.19,0,No,No
Surface Convection Parameters,T GFLOOR N1A,0,0.00,0.00,0.00,0,3.05,11.58,9.19,0.19,0,No,No
Surface Convection Parameters,T ROOF N1A,0,783.65,126.49,0.00,0,3.05,11.58,9.19,0.19,0,No,No
Surface Convection Parameters,T INTERNALMASS N1A,0,0.00,0.00,0.00,0,3.05,11.58,9.19,0.19,0,No,No
Surface Convection Parameters,T NWALL N2A,0,423.60,123.02,12.19,0,3.05,11.58,9.19,0.19,3,No,No
Surface Convection Parameters,TWINDOW1 N N2A,0,423.60,123.02,12.19,0,3.05,11.58,9.19,0.19,2,No,No
Surface Convection Parameters,T SIWALL N2A,0,0.00,0.00,0.00,0,3.05,11.58,9.19,0.19,0,No,No
Surface Convection Parameters,T EIWALL N2A,0,0.00,0.00,0.00,0,3.05,11.58,9.19,0.19,0,No,No
Surface Convection Parameters,iz-T EIWALL N1A,0,0.00,0.00,0.00,0,3.05,11.58,9.19,0.19,0,No,No
Surface Convection Parameters,T GFLOOR N2A,0,0.00,0.00,0.00,0,3.05,11.58,9.19,0.19,0,No,No
Surface Convection Parameters,T ROOF N2A,0,783.65,126.49,0.00,0,3.05,11.58,9.19,0.19,0,No,No
Surface Convection Parameters,T INTERNALMASS N2A,0,0.00,0.00,0.00,0,3.05,11.58,9.19,0.19,0,No,No
Surface Convection Parameters,T SWALL S1A,0,423.60,117.04,12.19,0,3.05,11.58,9.19,0.19,3,No,No
Surface Convection Parameters,TWINDOW1 S S1A,0,423.60,117.04,12.19,0,3.05,11.58,9.19,0.19,2,No,No
Surface Convection Parameters,T NIWALL S1A,0,0.00,0.00,0.00,0,3.05,11.58,9.19,0.19,0,No,No
Surface Convection Parameters,T EIWALL S1A,0,0.00,0.00,0.00,0,3.05,11.58,9.19,0.19,0,No,No
Surface Convection Parameters,iz-T EIWALL SWA,0,0.00,0.00,0.00,0,3.05,11.58,9.19,0.19,0,No,No
Surface Convection Parameters,T GFLOOR S1A,0,0.00,0.00,0.00,0,3.05,11.58,9.19,0.19,0,No,No
Surface Convection Parameters,T ROOF S1A,0,783.65,126.49,0.00,0,3.05,11.58,9.19,0.19,0,No,No
Surface Convection Parameters,T INTERNALMASS S1A,0,0.00,0.00,0.00,0,3.05,11.58,9.19,0.19,0,No,No
Surface Convection Parameters,T SWALL S2A,0,423.60,117.04,12.19,0,3.05,11.58,9.19,0.19,3,No,No
Surface Convection Parameters,TWINDOW1 S S2A,0,423.60,117.04,12.19,0,3.05,11.58,9.19,0.19,2,No,No
Surface Convection Parameters,T NIWALL S2A,0,0.00,0.00,0.00,0,3.05,11.58,9.19,0.19,0,No,No
Surface Convection Parameters,T EIWALL S2A,0,0.00,0.00,0.00,0,3.05,11.58,9.19,0.19,0,No,No
Surface Convection Parameters,iz-T EIWALL S1A,0,0.00,0.00,0.00,0,3.05,11.58,9.19,0.19,0,No,No
Surface Convection Parameters,T GFLOOR S2A,0,0.00,0.00,0.00,0,3.05,11.58,9.19,0.19,0,No,No
Surface Convection Parameters,T ROOF S2A,0,783.65,126.49,0.00,0,3.05,11.58,9.19,0.19,0,No,No
Surface Convection Parameters,T INTERNALMASS S2A,0,0.00,0.00,0.00,0,3.05,11.58,9.19,0.19,0,No,No
Surface Convection Parameters,T WWALL C,0,154.67,58.21,12.19,0,3.05,3.35,3.24,0.11,3,No,No
Surface Convection Parameters,T EWALL C,0,154.67,123.02,12.19,0,3.05,3.35,3.24,0.11,3,No,No
Surface Convection Parameters,TWINDOW14,0,154.67,123.02,12.19,0,3.05,3.35,3.24,0.11,2,No,No
Surface Convection Parameters,iz-T NIWALL SWA,0,0.00,0.00,0.00,0,3.05,3.35,3.24,0.11,0,No,No
Surface Convection Parameters,iz-T NIWALL S1A,0,0.00,0.00,0.00,0,3.05,3.35,3.24,0.11,0,No,No
Surface Convection Parameters,iz-T NIWALL S2A,0,0.00,0.00,0.00,0,3.05,3.35,3.24,0.11,0,No,No
Surface Convection Parameters,iz-T NIWALL SEA,0,0.00,0.00,0.00,0,3.05,3.35,3.24,0.11,0,No,No
Surface Convection Parameters,iz-T SIWALL NWA,0,0.00,0.00,0.00,0,3.05,3.35,3.24,0.11,0,No,No
Surface Convection Parameters,iz-T SIWALL N1A,0,0.00,0.00,0.00,0,3.05,3.35,3.24,0.11,0,No,No
Surface Convection Parameters,iz-T SIWALL N2A,0,0.00,0.00,0.00,0,3.05,3.35,3.24,0.11,0,No,No
Surface Convection Parameters,iz-T SIWALL NEA,0,0.00,0.00,0.00,0,3.05,3.35,3.24,0.11,0,No,No
Surface Convection Parameters,T FLOOR C,0,0.00,0.00,0.00,0,3.05,3.35,3.24,0.11,0,No,No
Surface Convection Parameters,T ROOF C,0,783.65,126.49,0.00,0,3.05,3.35,3.24,0.11,0,No,No
Surface Convection Parameters,G WWALL C,0,154.67,58.21,12.19,0,3.05,3.35,3.24,0.32,4,No,No
Surface Convection Parameters,G EWALL C,0,154.67,123.02,12.19,0,3.05,3.35,3.24,0.32,4,No,No
Surface Convection Parameters,ENTRANCE DOOR,0,154.67,123.02,12.19,0,3.05,3.35,3.24,0.32,1,No,No
Surface Convection Parameters,iz-G NIWALL SWA,0,0.00,0.00,0.00,0,3.05,3.35,3.24,0.32,0,No,No
Surface Convection Parameters,iz-G NIWALL S1A,0,0.00,0.00,0.00,0,3.05,3.35,3.24,0.32,0,No,No
Surface Convection Parameters,iz-G NIWALL S2A,0,0.00,0.00,0.00,0,3.05,3.35,3.24,0.32,0,No,No
Surface Convection Parameters,iz-G NIWALL SEA,0,0.00,0.00,0.00,0,3.05,3.35,3.24,0.32,0,No,No
Surface Convection Parameters,iz-G SIWALL NWA,0,0.00,0.00,0.00,0,3.05,3.35,3.24,0.32,0,No,No
Surface Convection Parameters,iz-G SIWALL N1A,0,0.00,0.00,0.00,0,3.05,3.35,3.24,0.32,0,No,No
Surface Convection Parameters,iz-G SIWALL N2A,0,0.00,0.00,0.00,0,3.05,3.35,3.24,0.32,0,No,No
Surface Convection Parameters,iz-G SIWALL NEA,0,0.00,0.00,0.00,0,3.05,3.35,3.24,0.32,0,No,No
Surface Convection Parameters,G FLOOR C,0,0.00,0.00,0.00,0,3.05,3.35,3.24,0.32,0,No,No
Surface Convection Parameters,G CEILING C,0,0.00,0.00,0.00,0,3.05,3.35,3.24,0.32,0,No,No
Surface Convection Parameters,M WWALL C,0,154.67,58.21,12.19,0,3.05,3.35,3.24,0.11,4,No,No
Surface Convection Parameters,M EWALL C,0,154.67,123.02,12.19,0,3.05,3.35,3.24,0.11,3,No,No
Surface Convection Parameters,MWINDOW14,0,154.67,123.02,12.19,0,3.05,3.35,3.24,0.11,2,No,No
Surface Convection Parameters,iz-M NIWALL SWA,0,0.00,0.00,0.00,0,3.05,3.35,3.24,0.11,0,No,No
Surface Convection Parameters,iz-M NIWALL S1A,0,0.00,0.00,0.00,0,3.05,3.35,3.24,0.11,0,No,No
Surface Convection Parameters,iz-M NIWALL S2A,0,0.00,0.00,0.00,0,3.05,3.35,3.24,0.11,0,No,No
Surface Convection Parameters,iz-M NIWALL SEA,0,0.00,0.00,0.00,0,3.05,3.35,3.24,0.11,0,No,No
Surface Convection Parameters,iz-M SIWALL NWA,0,0.00,0.00,0.00,0,3.05,3.35,3.24,0.11,0,No,No
Surface Convection Parameters,iz-M SIWALL N1A,0,0.00,0.00,0.00,0,3.05,3.35,3.24,0.11,0,No,No
Surface Convection Parameters,iz-M SIWALL N2A,0,0.00,0.00,0.00,0,3.05,3.35,3.24,0.11,0,No,No
Surface Convection Parameters,iz-M SIWALL NEA,0,0.00,0.00,0.00,0,3.05,3.35,3.24,0.11,0,No,No
Surface Convection Parameters,M FLOOR C,0,0.00,0.00,0.00,0,3.05,3.35,3.24,0.11,0,No,No
Surface Convection Parameters,M CEILING C,0,0.00,0.00,0.00,0,3.05,3.35,3.24,0.11,0,No,No
! <ZoneInfiltration Airflow Stats Nominal>,Name,Input Object, Schedule Name,Zone Name, Zone Floor Area {m2}, # Zone Occupants,Design Volume Flow Rate {m3/s},Volume Flow Rate/Floor Area {m3/s-m2},Volume Flow Rate/Exterior Surface Area {m3/s-m2},ACH - Air Changes per Hour,Equation A - Constant Term Coefficient {},Equation B - Temperature Term Coefficient {1/C},Equation C - Velocity Term Coefficient {s/m}, Equation D - Velocity Squared Term Coefficient {s2/m2}
 ZoneInfiltration Airflow Stats Nominal, INFIL_GSW,ZoneInfiltration:DesignFlowRate,INF_APT_SCH,G SW APARTMENT,88.25,2.5,0.112,1.270E-003,1.915E-003,1.500,1.000,0.000,0.000,0.000
 ZoneInfiltration Airflow Stats Nominal, INFIL_GNW,ZoneInfiltration:DesignFlowRate,INF_APT_SCH,G NW APARTMENT,88.25,2.5,0.112,1.270E-003,1.915E-003,1.500,1.000,0.000,0.000,0.000
 ZoneInfiltration Airflow Stats Nominal, INFIL_OFFICE,ZoneInfiltration:DesignFlowRate,INF_OFF_SCH,OFFICE,88.25,4.7,0.112,1.270E-003,1.915E-003,1.500,1.000,0.000,0.000,0.000
 ZoneInfiltration Airflow Stats Nominal, INFIL_GNE,ZoneInfiltration:DesignFlowRate,INF_APT_SCH,G NE APARTMENT,88.25,2.5,0.112,1.270E-003,1.915E-003,1.500,1.000,0.000,0.000,0.000
 ZoneInfiltration Airflow Stats Nominal, INFIL_GN1,ZoneInfiltration:DesignFlowRate,INF_APT_SCH,G N1 APARTMENT,88.25,2.5,0.112,1.270E-003,3.175E-003,1.500,1.000,0.000,0.000,0.000
 ZoneInfiltration Airflow Stats Nominal, INFIL_GN2,ZoneInfiltration:DesignFlowRate,INF_APT_SCH,G N2 APARTMENT,88.25,2.5,0.112,1.270E-003,3.175E-003,1.500,1.000,0.000,0.000,0.000
 ZoneInfiltration Airflow Stats Nominal, INFIL_GS1,ZoneInfiltration:DesignFlowRate,INF_APT_SCH,G S1 APARTMENT,88.25,2.5,0.112,1.270E-003,3.175E-003,1.500,1.000,0.000,0.000,0.000
 ZoneInfiltration Airflow Stats Nominal, INFIL_GS2,ZoneInfiltration:DesignFlowRate,INF_APT_SCH,G S2 APARTMENT,88.25,2.5,0.112,1.270E-003,3.175E-003,1.500,1.000,0.000,0.000,0.000
 ZoneInfiltration Airflow Stats Nominal, INFIL_MSW,ZoneInfiltration:DesignFlowRate,INF_APT_SCH,M SW APARTMENT,88.25,2.5,0.112,1.270E-003,1.915E-003,1.500,1.000,0.000,0.000,0.000
 ZoneInfiltration Airflow Stats Nominal, INFIL_MNW,ZoneInfiltration:DesignFlowRate,INF_APT_SCH,M NW APARTMENT,88.25,2.5,0.112,1.270E-003,1.915E-003,1.500,1.000,0.000,0.000,0.000
 ZoneInfiltration Airflow Stats Nominal, INFIL_MSE,ZoneInfiltration:DesignFlowRate,INF_APT_SCH,M SE APARTMENT,88.25,2.5,0.112,1.270E-003,1.915E-003,1.500,1.000,0.000,0.000,0.000
 ZoneInfiltration Airflow Stats Nominal, INFIL_MNE,ZoneInfiltration:DesignFlowRate,INF_APT_SCH,M NE APARTMENT,88.25,2.5,0.112,1.270E-003,1.915E-003,1.500,1.000,0.000,0.000,0.000
 ZoneInfiltration Airflow Stats Nominal, INFIL_MN1,ZoneInfiltration:DesignFlowRate,INF_APT_SCH,M N1 APARTMENT,88.25,2.5,0.112,1.270E-003,3.175E-003,1.500,1.000,0.000,0.000,0.000
 ZoneInfiltration Airflow Stats Nominal, INFIL_MN2,ZoneInfiltration:DesignFlowRate,INF_APT_SCH,M N2 APARTMENT,88.25,2.5,0.112,1.270E-003,3.175E-003,1.500,1.000,0.000,0.000,0.000
 ZoneInfiltration Airflow Stats Nominal, INFIL_MS1,ZoneInfiltration:DesignFlowRate,INF_APT_SCH,M S1 APARTMENT,88.25,2.5,0.112,1.270E-003,3.175E-003,1.500,1.000,0.000,0.000,0.000
 ZoneInfiltration Airflow Stats Nominal, INFIL_MS2,ZoneInfiltration:DesignFlowRate,INF_APT_SCH,M S2 APARTMENT,88.25,2.5,0.112,1.270E-003,3.175E-003,1.500,1.000,0.000,0.000,0.000
 ZoneInfiltration Airflow Stats Nominal, INFIL_SW,ZoneInfiltration:DesignFlowRate,INF_APT_SCH,T SW APARTMENT,88.25,2.5,0.112,1.270E-003,7.636E-004,1.500,1.000,0.000,0.000,0.000
 ZoneInfiltration Airflow Stats Nominal, INFIL_NW,ZoneInfiltration:DesignFlowRate,INF_APT_SCH,T NW APARTMENT,88.25,2.5,0.112,1.270E-003,7.636E-004,1.500,1.000,0.000,0.000,0.000
 ZoneInfiltration Airflow Stats Nominal, INFIL_SE,ZoneInfiltration:DesignFlowRate,INF_APT_SCH,T SE APARTMENT,88.25,2.5,0.112,1.270E-003,7.636E-004,1.500,1.000,0.000,0.000,0.000
 ZoneInfiltration Airflow Stats Nominal, INFIL_NE,ZoneInfiltration:DesignFlowRate,INF_APT_SCH,T NE APARTMENT,88.25,2.5,0.112,1.270E-003,7.636E-004,1.500,1.000,0.000,0.000,0.000
 ZoneInfiltration Airflow Stats Nominal, INFIL_TN1,ZoneInfiltration:DesignFlowRate,INF_APT_SCH,T N1 APARTMENT,88.25,2.5,0.112,1.270E-003,9.071E-004,1.500,1.000,0.000,0.000,0.000
 ZoneInfiltration Airflow Stats Nominal, INFIL_TN2,ZoneInfiltration:DesignFlowRate,INF_APT_SCH,T N2 APARTMENT,88.25,2.5,0.112,1.270E-003,9.071E-004,1.500,1.000,0.000,0.000,0.000
 ZoneInfiltration Airflow Stats Nominal, INFIL_TS1,ZoneInfiltration:DesignFlowRate,INF_APT_SCH,T S1 APARTMENT,88.25,2.5,0.112,1.270E-003,9.071E-004,1.500,1.000,0.000,0.000,0.000
 ZoneInfiltration Airflow Stats Nominal, INFIL_TS2,ZoneInfiltration:DesignFlowRate,INF_APT_SCH,T S2 APARTMENT,88.25,2.5,0.112,1.270E-003,9.071E-004,1.500,1.000,0.000,0.000,0.000
 ZoneInfiltration Airflow Stats Nominal, INFIL_GC,ZoneInfiltration:DesignFlowRate,INF_COR_SCH,G CORRIDOR,77.66,4.2,9.862E-002,1.270E-003,9.652E-003,1.500,1.000,0.000,0.000,0.000
 ZoneInfiltration Airflow Stats Nominal, DOOR_INFIL_GC,ZoneInfiltration:DesignFlowRate,INFIL_DOOR_OPENING_SCH,G CORRIDOR,77.66,4.2,9.862E-002,1.270E-003,9.652E-003,1.500,1.000,0.000,0.000,0.000
 ZoneInfiltration Airflow Stats Nominal, INFIL_MC,ZoneInfiltration:DesignFlowRate,INF_COR_SCH,M CORRIDOR,77.66,4.2,9.862E-002,1.270E-003,9.652E-003,1.500,1.000,0.000,0.000,0.000
 ZoneInfiltration Airflow Stats Nominal, INFIL_TC,ZoneInfiltration:DesignFlowRate,INF_COR_SCH,T CORRIDOR,77.66,4.2,9.862E-002,1.270E-003,1.122E-003,1.500,1.000,0.000,0.000,0.000
! <ZoneVentilation Airflow Stats Nominal>,Name,Input Object, Schedule Name,Zone Name, Zone Floor Area {m2}, # Zone Occupants,Design Volume Flow Rate {m3/s},Volume Flow Rate/Floor Area {m3/s-m2},Volume Flow Rate/person Area {m3/s-person},ACH - Air Changes per Hour,Fan Type {Exhaust;Intake;Natural},Fan Pressure Rise {Pa},Fan Efficiency {},Equation A - Constant Term Coefficient {},Equation B - Temperature Term Coefficient {1/C},Equation C - Velocity Term Coefficient {s/m}, Equation D - Velocity Squared Term Coefficient {s2/m2},Minimum Indoor Temperature{C}/Schedule,Maximum Indoor Temperature{C}/Schedule,Delta Temperature{C}/Schedule,Minimum Outdoor Temperature{C}/Schedule,Maximum Outdoor Temperature{C}/Schedule,Maximum WindSpeed{m/s}
 ZoneVentilation Airflow Stats Nominal, G SW APARTMENT SLIDING DOOR VENTILATION,ZoneVentilation:WindandStackOpenArea,Constant-1.0,G SW APARTMENT,88.25,2.5,0.000,0.000,0.000,0.000,Natural,0.000,0.0,0.000,0.000,0.000,0.000,18.89,25.56,-100.00,15.56,23.89,40.00
 ZoneVentilation Airflow Stats Nominal, G NW APARTMENT SLIDING DOOR VENTILATION,ZoneVentilation:WindandStackOpenArea,Constant-1.0,G NW APARTMENT,88.25,2.5,0.000,0.000,0.000,0.000,Natural,0.000,0.0,0.000,0.000,0.000,0.000,18.89,25.56,-100.00,15.56,23.89,40.00
 ZoneVentilation Airflow Stats Nominal, G NE APARTMENT SLIDING DOOR VENTILATION,ZoneVentilation:WindandStackOpenArea,Constant-1.0,G NE APARTMENT,88.25,2.5,0.000,0.000,0.000,0.000,Natural,0.000,0.0,0.000,0.000,0.000,0.000,18.89,25.56,-100.00,15.56,23.89,40.00
 ZoneVentilation Airflow Stats Nominal, G N1 APARTMENT SLIDING DOOR VENTILATION,ZoneVentilation:WindandStackOpenArea,Constant-1.0,G N1 APARTMENT,88.25,2.5,0.000,0.000,0.000,0.000,Natural,0.000,0.0,0.000,0.000,0.000,0.000,18.89,25.56,-100.00,15.56,23.89,40.00
 ZoneVentilation Airflow Stats Nominal, G N2 APARTMENT SLIDING DOOR VENTILATION,ZoneVentilation:WindandStackOpenArea,Constant-1.0,G N2 APARTMENT,88.25,2.5,0.000,0.000,0.000,0.000,Natural,0.000,0.0,0.000,0.000,0.000,0.000,18.89,25.56,-100.00,15.56,23.89,40.00
 ZoneVentilation Airflow Stats Nominal, G S1 APARTMENT SLIDING DOOR VENTILATION,ZoneVentilation:WindandStackOpenArea,Constant-1.0,G S1 APARTMENT,88.25,2.5,0.000,0.000,0.000,0.000,Natural,0.000,0.0,0.000,0.000,0.000,0.000,18.89,25.56,-100.00,15.56,23.89,40.00
 ZoneVentilation Airflow Stats Nominal, G S2 APARTMENT SLIDING DOOR VENTILATION,ZoneVentilation:WindandStackOpenArea,Constant-1.0,G S2 APARTMENT,88.25,2.5,0.000,0.000,0.000,0.000,Natural,0.000,0.0,0.000,0.000,0.000,0.000,18.89,25.56,-100.00,15.56,23.89,40.00
 ZoneVentilation Airflow Stats Nominal, M SW APARTMENT SLIDING DOOR VENTILATION,ZoneVentilation:WindandStackOpenArea,Constant-1.0,M SW APARTMENT,88.25,2.5,0.000,0.000,0.000,0.000,Natural,0.000,0.0,0.000,0.000,0.000,0.000,18.89,25.56,-100.00,15.56,23.89,40.00
 ZoneVentilation Airflow Stats Nominal, M NW APARTMENT SLIDING DOOR VENTILATION,ZoneVentilation:WindandStackOpenArea,Constant-1.0,M NW APARTMENT,88.25,2.5,0.000,0.000,0.000,0.000,Natural,0.000,0.0,0.000,0.000,0.000,0.000,18.89,25.56,-100.00,15.56,23.89,40.00
 ZoneVentilation Airflow Stats Nominal, M SE APARTMENT SLIDING DOOR VENTILATION,ZoneVentilation:WindandStackOpenArea,Constant-1.0,M SE APARTMENT,88.25,2.5,0.000,0.000,0.000,0.000,Natural,0.000,0.0,0.000,0.000,0.000,0.000,18.89,25.56,-100.00,15.56,23.89,40.00
 ZoneVentilation Airflow Stats Nominal, M NE APARTMENT SLIDING DOOR VENTILATION,ZoneVentilation:WindandStackOpenArea,Constant-1.0,M NE APARTMENT,88.25,2.5,0.000,0.000,0.000,0.000,Natural,0.000,0.0,0.000,0.000,0.000,0.000,18.89,25.56,-100.00,15.56,23.89,40.00
 ZoneVentilation Airflow Stats Nominal, M N1 APARTMENT SLIDING DOOR VENTILATION,ZoneVentilation:WindandStackOpenArea,Constant-1.0,M N1 APARTMENT,88.25,2.5,0.000,0.000,0.000,0.000,Natural,0.000,0.0,0.000,0.000,0.000,0.000,18.89,25.56,-100.00,15.56,23.89,40.00
 ZoneVentilation Airflow Stats Nominal, M N2 APARTMENT SLIDING DOOR VENTILATION,ZoneVentilation:WindandStackOpenArea,Constant-1.0,M N2 APARTMENT,88.25,2.5,0.000,0.000,0.000,0.000,Natural,0.000,0.0,0.000,0.000,0.000,0.000,18.89,25.56,-100.00,15.56,23.89,40.00
 ZoneVentilation Airflow Stats Nominal, M S1 APARTMENT SLIDING DOOR VENTILATION,ZoneVentilation:WindandStackOpenArea,Constant-1.0,M S1 APARTMENT,88.25,2.5,0.000,0.000,0.000,0.000,Natural,0.000,0.0,0.000,0.000,0.000,0.000,18.89,25.56,-100.00,15.56,23.89,40.00
 ZoneVentilation Airflow Stats Nominal, M S2 APARTMENT SLIDING DOOR VENTILATION,ZoneVentilation:WindandStackOpenArea,Constant-1.0,M S2 APARTMENT,88.25,2.5,0.000,0.000,0.000,0.000,Natural,0.000,0.0,0.000,0.000,0.000,0.000,18.89,25.56,-100.00,15.56,23.89,40.00
 ZoneVentilation Airflow Stats Nominal, T SW APARTMENT SLIDING DOOR VENTILATION,ZoneVentilation:WindandStackOpenArea,Constant-1.0,T SW APARTMENT,88.25,2.5,0.000,0.000,0.000,0.000,Natural,0.000,0.0,0.000,0.000,0.000,0.000,18.89,25.56,-100.00,15.56,23.89,40.00
 ZoneVentilation Airflow Stats Nominal, T NW APARTMENT SLIDING DOOR VENTILATION,ZoneVentilation:WindandStackOpenArea,Constant-1.0,T NW APARTMENT,88.25,2.5,0.000,0.000,0.000,0.000,Natural,0.000,0.0,0.000,0.000,0.000,0.000,18.89,25.56,-100.00,15.56,23.89,40.00
 ZoneVentilation Airflow Stats Nominal, T SE APARTMENT SLIDING DOOR VENTILATION,ZoneVentilation:WindandStackOpenArea,Constant-1.0,T SE APARTMENT,88.25,2.5,0.000,0.000,0.000,0.000,Natural,0.000,0.0,0.000,0.000,0.000,0.000,18.89,25.56,-100.00,15.56,23.89,40.00
 ZoneVentilation Airflow Stats Nominal, T NE APARTMENT SLIDING DOOR VENTILATION,ZoneVentilation:WindandStackOpenArea,Constant-1.0,T NE APARTMENT,88.25,2.5,0.000,0.000,0.000,0.000,Natural,0.000,0.0,0.000,0.000,0.000,0.000,18.89,25.56,-100.00,15.56,23.89,40.00
 ZoneVentilation Airflow Stats Nominal, T N1 APARTMENT SLIDING DOOR VENTILATION,ZoneVentilation:WindandStackOpenArea,Constant-1.0,T N1 APARTMENT,88.25,2.5,0.000,0.000,0.000,0.000,Natural,0.000,0.0,0.000,0.000,0.000,0.000,18.89,25.56,-100.00,15.56,23.89,40.00
 ZoneVentilation Airflow Stats Nominal, T N2 APARTMENT SLIDING DOOR VENTILATION,ZoneVentilation:WindandStackOpenArea,Constant-1.0,T N2 APARTMENT,88.25,2.5,0.000,0.000,0.000,0.000,Natural,0.000,0.0,0.000,0.000,0.000,0.000,18.89,25.56,-100.00,15.56,23.89,40.00
 ZoneVentilation Airflow Stats Nominal, T S1 APARTMENT SLIDING DOOR VENTILATION,ZoneVentilation:WindandStackOpenArea,Constant-1.0,T S1 APARTMENT,88.25,2.5,0.000,0.000,0.000,0.000,Natural,0.000,0.0,0.000,0.000,0.000,0.000,18.89,25.56,-100.00,15.56,23.89,40.00
 ZoneVentilation Airflow Stats Nominal, T S2 APARTMENT SLIDING DOOR VENTILATION,ZoneVentilation:WindandStackOpenArea,Constant-1.0,T S2 APARTMENT,88.25,2.5,0.000,0.000,0.000,0.000,Natural,0.000,0.0,0.000,0.000,0.000,0.000,18.89,25.56,-100.00,15.56,23.89,40.00
! <AirFlow Model>, Simple
 AirFlow Model, Simple
! <RoomAir Model>, Zone Name, Mixing/Mundt/UCSDDV/UCSDCV/UCSDUFI/UCSDUFE/User Defined
RoomAir Model,G SW APARTMENT,Mixing/Well-Stirred
RoomAir Model,G NW APARTMENT,Mixing/Well-Stirred
RoomAir Model,OFFICE,Mixing/Well-Stirred
RoomAir Model,G NE APARTMENT,Mixing/Well-Stirred
RoomAir Model,G N1 APARTMENT,Mixing/Well-Stirred
RoomAir Model,G N2 APARTMENT,Mixing/Well-Stirred
RoomAir Model,G S1 APARTMENT,Mixing/Well-Stirred
RoomAir Model,G S2 APARTMENT,Mixing/Well-Stirred
RoomAir Model,M SW APARTMENT,Mixing/Well-Stirred
RoomAir Model,M NW APARTMENT,Mixing/Well-Stirred
RoomAir Model,M SE APARTMENT,Mixing/Well-Stirred
RoomAir Model,M NE APARTMENT,Mixing/Well-Stirred
RoomAir Model,M N1 APARTMENT,Mixing/Well-Stirred
RoomAir Model,M N2 APARTMENT,Mixing/Well-Stirred
RoomAir Model,M S1 APARTMENT,Mixing/Well-Stirred
RoomAir Model,M S2 APARTMENT,Mixing/Well-Stirred
RoomAir Model,T SW APARTMENT,Mixing/Well-Stirred
RoomAir Model,T NW APARTMENT,Mixing/Well-Stirred
RoomAir Model,T SE APARTMENT,Mixing/Well-Stirred
RoomAir Model,T NE APARTMENT,Mixing/Well-Stirred
RoomAir Model,T N1 APARTMENT,Mixing/Well-Stirred
RoomAir Model,T N2 APARTMENT,Mixing/Well-Stirred
RoomAir Model,T S1 APARTMENT,Mixing/Well-Stirred
RoomAir Model,T S2 APARTMENT,Mixing/Well-Stirred
RoomAir Model,T CORRIDOR,Mixing/Well-Stirred
RoomAir Model,G CORRIDOR,Mixing/Well-Stirred
RoomAir Model,M CORRIDOR,Mixing/Well-Stirred
! <AirflowNetwork Model:Control>, No Multizone or Distribution/Multizone with Distribution/Multizone without Distribution/Multizone with Distribution only during Fan Operation
AirflowNetwork Model:Control,NoMultizoneOrDistribution
! <Zone Volume Capacitance Multiplier>, Sensible Heat Capacity Multiplier, Moisture Capacity Multiplier, Carbon Dioxide Capacity Multiplier, Generic Contaminant Capacity Multiplier
Zone Volume Capacitance Multiplier,   1.000 ,   1.000,   1.000,   1.000
! <Load Timesteps in Zone Design Calculation Averaging Window>, Value
 Load Timesteps in Zone Design Calculation Averaging Window,    6
! <Heating Sizing Factor Information>, Sizing Factor ID, Value
[...]
HeatTransfer Surface,T INTERNALMASS N2A,Internal Mass,,CTF - ConductionTransferFunction,INTERIORFURNISHINGS,0.800,0.800,,88.25,88.25,88.25,0.00,90.00,88.25,1.00,0.00,T INTERNALMASS N2A,Other/Same Surface Int Conv,ASHRAETARP,NoSun,NoWind,0.00,0.50,1.00,0.00,0
Zone Surfaces,T S1 APARTMENT,8
HeatTransfer Surface,T SWALL S1A,Wall,,CTF - ConductionTransferFunction,CN_EXT_WALL,2.013,1.547,,28.52,35.30,28.52,180.00,90.00,11.58,3.05,0.00,ExternalEnvironment,ASHRAETARP,ASHRAETARP,SunExposed,WindExposed,0.50,0.50,0.50,0.50,4
HeatTransfer Surface,TWINDOW1 S S1A,Window,T SWALL S1A,Window5 Detailed Fenestration,RESWINDOW_U_0.5946_SHGC_0.39,N/A,5.807,No,6.78,6.78,6.78,180.00,90.00,5.73,1.18,0.00,ExternalEnvironment,ASHRAETARP,ASHRAETARP,SunExposed,WindExposed,0.50,0.50,0.50,0.50,4
HeatTransfer Surface,T NIWALL S1A,Wall,,CTF - ConductionTransferFunction,INT_WALL,6.299,3.242,,35.30,35.30,35.30,0.00,90.00,11.58,3.05,0.00,iz-T NIWALL S1A,Other/Same Surface Int Conv,ASHRAETARP,NoSun,NoWind,0.50,0.50,0.50,0.50,4
HeatTransfer Surface,T EIWALL S1A,Wall,,CTF - ConductionTransferFunction,INT_WALL,6.299,3.242,,23.22,23.22,23.22,90.00,90.00,7.62,3.05,0.00,iz-T EIWALL S1A,Other/Same Surface Int Conv,ASHRAETARP,NoSun,NoWind,0.50,0.50,0.50,0.50,4
HeatTransfer Surface,iz-T EIWALL SWA,Wall,,CTF - ConductionTransferFunction,INT_WALL,6.299,3.242,,23.22,23.22,23.22,270.00,90.00,7.62,3.05,0.00,T EIWALL SWA,Other/Same Surface Int Conv,ASHRAETARP,NoSun,NoWind,0.50,0.50,0.50,0.50,4
HeatTransfer Surface,T GFLOOR S1A,Floor,,CTF - ConductionTransferFunction,EXT_SLAB_8IN_WITH_CARPET,3.285,1.827,,88.25,88.25,88.25,90.00,180.00,7.62,11.58,0.00,T GFLOOR S1A,Other/Same Surface Int Conv,ASHRAETARP,NoSun,NoWind,1.00,0.00,1.00,0.00,4
HeatTransfer Surface,T ROOF S1A,Roof,,CTF - ConductionTransferFunction,CN_EXT_ROOF,1.442,1.134,,88.25,88.25,88.25,180.00,0.00,11.58,7.62,0.00,ExternalEnvironment,ASHRAETARP,ASHRAETARP,SunExposed,WindExposed,0.00,1.00,0.00,1.00,4
HeatTransfer Surface,T INTERNALMASS S1A,Internal Mass,,CTF - ConductionTransferFunction,INTERIORFURNISHINGS,0.800,0.800,,88.25,88.25,88.25,0.00,90.00,88.25,1.00,0.00,T INTERNALMASS S1A,Other/Same Surface Int Conv,ASHRAETARP,NoSun,NoWind,0.00,0.50,1.00,0.00,0
Zone Surfaces,T S2 APARTMENT,8
HeatTransfer Surface,T SWALL S2A,Wall,,CTF - ConductionTransferFunction,CN_EXT_WALL,2.013,1.547,,28.52,35.30,28.52,180.00,90.00,11.58,3.05,0.00,ExternalEnvironment,ASHRAETARP,ASHRAETARP,SunExposed,WindExposed,0.50,0.50,0.50,0.50,4
HeatTransfer Surface,TWINDOW1 S S2A,Window,T SWALL S2A,Window5 Detailed Fenestration,RESWINDOW_U_0.5946_SHGC_0.39,N/A,5.807,No,6.78,6.78,6.78,180.00,90.00,5.73,1.18,0.00,ExternalEnvironment,ASHRAETARP,ASHRAETARP,SunExposed,WindExposed,0.50,0.50,0.50,0.50,4
HeatTransfer Surface,T NIWALL S2A,Wall,,CTF - ConductionTransferFunction,INT_WALL,6.299,3.242,,35.30,35.30,35.30,0.00,90.00,11.58,3.05,0.00,iz-T NIWALL S2A,Other/Same Surface Int Conv,ASHRAETARP,NoSun,NoWind,0.50,0.50,0.50,0.50,4
HeatTransfer Surface,T EIWALL S2A,Wall,,CTF - ConductionTransferFunction,INT_WALL,6.299,3.242,,23.22,23.22,23.22,90.00,90.00,7.62,3.05,0.00,iz-T EIWALL S2A,Other/Same Surface Int Conv,ASHRAETARP,NoSun,NoWind,0.50,0.50,0.50,0.50,4
HeatTransfer Surface,iz-T EIWALL S1A,Wall,,CTF - ConductionTransferFunction,INT_WALL,6.299,3.242,,23.22,23.22,23.22,270.00,90.00,7.62,3.05,0.00,T EIWALL S1A,Other/Same Surface Int Conv,ASHRAETARP,NoSun,NoWind,0.50,0.50,0.50,0.50,4
HeatTransfer Surface,T GFLOOR S2A,Floor,,CTF - ConductionTransferFunction,EXT_SLAB_8IN_WITH_CARPET,3.285,1.827,,88.25,88.25,88.25,90.00,180.00,7.62,11.58,0.00,T GFLOOR S2A,Other/Same Surface Int Conv,ASHRAETARP,NoSun,NoWind,1.00,0.00,1.00,0.00,4
HeatTransfer Surface,T ROOF S2A,Roof,,CTF - ConductionTransferFunction,CN_EXT_ROOF,1.442,1.134,,88.25,88.25,88.25,180.00,0.00,11.58,7.62,0.00,ExternalEnvironment,ASHRAETARP,ASHRAETARP,SunExposed,WindExposed,0.00,1.00,0.00,1.00,4
HeatTransfer Surface,T INTERNALMASS S2A,Internal Mass,,CTF - ConductionTransferFunction,INTERIORFURNISHINGS,0.800,0.800,,88.25,88.25,88.25,0.00,90.00,88.25,1.00,0.00,T INTERNALMASS S2A,Other/Same Surface Int Conv,ASHRAETARP,NoSun,NoWind,0.00,0.50,1.00,0.00,0
Zone Surfaces,T CORRIDOR,13
HeatTransfer Surface,T WWALL C,Wall,,CTF - ConductionTransferFunction,CN_EXT_WALL,2.013,1.547,,5.11,5.11,5.11,270.00,90.00,1.68,3.05,0.00,ExternalEnvironment,ASHRAETARP,ASHRAETARP,SunExposed,WindExposed,0.50,0.50,0.50,0.50,4
HeatTransfer Surface,T EWALL C,Wall,,CTF - ConductionTransferFunction,CN_EXT_WALL,2.013,1.547,,3.99,5.11,3.99,90.00,90.00,1.68,3.05,0.00,ExternalEnvironment,ASHRAETARP,ASHRAETARP,SunExposed,WindExposed,0.50,0.50,0.50,0.50,4
HeatTransfer Surface,TWINDOW14,Window,T EWALL C,Window5 Detailed Fenestration,NONRESWINDOW_U_0.5946_SHGC_0.25,N/A,5.807,No,1.11,1.11,1.11,90.00,90.00,0.91,1.22,0.00,ExternalEnvironment,ASHRAETARP,ASHRAETARP,SunExposed,WindExposed,0.50,0.50,0.50,0.50,4
HeatTransfer Surface,iz-T NIWALL SWA,Wall,,CTF - ConductionTransferFunction,INT_WALL,6.299,3.242,,35.30,35.30,35.30,180.00,90.00,11.58,3.05,0.00,T NIWALL SWA,Other/Same Surface Int Conv,ASHRAETARP,NoSun,NoWind,0.50,0.50,0.50,0.50,4
HeatTransfer Surface,iz-T NIWALL S1A,Wall,,CTF - ConductionTransferFunction,INT_WALL,6.299,3.242,,35.30,35.30,35.30,180.00,90.00,11.58,3.05,0.00,T NIWALL S1A,Other/Same Surface Int Conv,ASHRAETARP,NoSun,NoWind,0.50,0.50,0.50,0.50,4
HeatTransfer Surface,iz-T NIWALL S2A,Wall,,CTF - ConductionTransferFunction,INT_WALL,6.299,3.242,,35.30,35.30,35.30,180.00,90.00,11.58,3.05,0.00,T NIWALL S2A,Other/Same Surface Int Conv,ASHRAETARP,NoSun,NoWind,0.50,0.50,0.50,0.50,4
HeatTransfer Surface,iz-T NIWALL SEA,Wall,,CTF - ConductionTransferFunction,INT_WALL,6.299,3.242,,35.30,35.30,35.30,180.00,90.00,11.58,3.05,0.00,T NIWALL SEA,Other/Same Surface Int Conv,ASHRAETARP,NoSun,NoWind,0.50,0.50,0.50,0.50,4
HeatTransfer Surface,iz-T SIWALL NWA,Wall,,CTF - ConductionTransferFunction,INT_WALL,6.299,3.242,,35.30,35.30,35.30,0.00,90.00,11.58,3.05,0.00,T SIWALL NWA,Other/Same Surface Int Conv,ASHRAETARP,NoSun,NoWind,0.50,0.50,0.50,0.50,4
HeatTransfer Surface,iz-T SIWALL N1A,Wall,,CTF - ConductionTransferFunction,INT_WALL,6.299,3.242,,35.30,35.30,35.30,0.00,90.00,11.58,3.05,0.00,T SIWALL N1A,Other/Same Surface Int Conv,ASHRAETARP,NoSun,NoWind,0.50,0.50,0.50,0.50,4
HeatTransfer Surface,iz-T SIWALL N2A,Wall,,CTF - ConductionTransferFunction,INT_WALL,6.299,3.242,,35.30,35.30,35.30,0.00,90.00,11.58,3.05,0.00,T SIWALL N2A,Other/Same Surface Int Conv,ASHRAETARP,NoSun,NoWind,0.50,0.50,0.50,0.50,4
HeatTransfer Surface,iz-T SIWALL NEA,Wall,,CTF - ConductionTransferFunction,INT_WALL,6.299,3.242,,35.30,35.30,35.30,0.00,90.00,11.58,3.05,0.00,T SIWALL NEA,Other/Same Surface Int Conv,ASHRAETARP,NoSun,NoWind,0.50,0.50,0.50,0.50,4
HeatTransfer Surface,T FLOOR C,Floor,,CTF - ConductionTransferFunction,EXT_SLAB_8IN_WITH_CARPET,3.285,1.827,,77.66,77.66,77.66,90.00,180.00,1.68,46.33,0.00,T FLOOR C,Other/Same Surface Int Conv,ASHRAETARP,NoSun,NoWind,1.00,0.00,1.00,0.00,4
HeatTransfer Surface,T ROOF C,Roof,,CTF - ConductionTransferFunction,CN_EXT_ROOF,1.442,1.134,,77.66,77.66,77.66,180.00,0.00,46.33,1.68,0.00,ExternalEnvironment,ASHRAETARP,ASHRAETARP,NoSun,NoWind,0.00,1.00,0.00,1.00,4
Zone Surfaces,G CORRIDOR,13
HeatTransfer Surface,G WWALL C,Wall,,CTF - ConductionTransferFunction,CN_EXT_WALL,2.013,1.547,,5.11,5.11,5.11,270.00,90.00,1.68,3.05,0.00,ExternalEnvironment,ASHRAETARP,ASHRAETARP,SunExposed,WindExposed,0.50,0.50,0.50,0.50,4
HeatTransfer Surface,G EWALL C,Wall,,CTF - ConductionTransferFunction,CN_EXT_WALL,2.013,1.547,,1.79,5.11,1.79,90.00,90.00,1.68,3.05,0.00,ExternalEnvironment,ASHRAETARP,ASHRAETARP,SunExposed,WindExposed,0.50,0.50,0.50,0.50,4
HeatTransfer Surface,ENTRANCE DOOR,Window,G EWALL C,Window5 Detailed Fenestration,NONRESWINDOW_U_0.5946_SHGC_0.25,N/A,5.807,No,3.32,3.32,3.32,90.00,90.00,1.57,2.11,0.00,ExternalEnvironment,ASHRAETARP,ASHRAETARP,SunExposed,WindExposed,0.50,0.50,0.50,0.50,4
HeatTransfer Surface,iz-G NIWALL SWA,Wall,,CTF - ConductionTransferFunction,INT_WALL,6.299,3.242,,35.30,35.30,35.30,180.00,90.00,11.58,3.05,0.00,G NIWALL SWA,Other/Same Surface Int Conv,ASHRAETARP,NoSun,NoWind,0.50,0.50,0.50,0.50,4
HeatTransfer Surface,iz-G NIWALL S1A,Wall,,CTF - ConductionTransferFunction,INT_WALL,6.299,3.242,,35.30,35.30,35.30,180.00,90.00,11.58,3.05,0.00,G NIWALL S1A,Other/Same Surface Int Conv,ASHRAETARP,NoSun,NoWind,0.50,0.50,0.50,0.50,4
HeatTransfer Surface,iz-G NIWALL S2A,Wall,,CTF - ConductionTransferFunction,INT_WALL,6.299,3.242,,35.30,35.30,35.30,180.00,90.00,11.58,3.05,0.00,G NIWALL S2A,Other/Same Surface Int Conv,ASHRAETARP,NoSun,NoWind,0.50,0.50,0.50,0.50,4
HeatTransfer Surface,iz-G NIWALL SEA,Wall,,CTF - ConductionTransferFunction,INT_WALL,6.299,3.242,,35.30,35.30,35.30,180.00,90.00,11.58,3.05,0.00,G NIWALL SEA,Other/Same Surface Int Conv,ASHRAETARP,NoSun,NoWind,0.50,0.50,0.50,0.50,4
HeatTransfer Surface,iz-G SIWALL NWA,Wall,,CTF - ConductionTransferFunction,INT_WALL,6.299,3.242,,35.30,35.30,35.30,0.00,90.00,11.58,3.05,0.00,G SIWALL NWA,Other/Same Surface Int Conv,ASHRAETARP,NoSun,NoWind,0.50,0.50,0.50,0.50,4
HeatTransfer Surface,iz-G SIWALL N1A,Wall,,CTF - ConductionTransferFunction,INT_WALL,6.299,3.242,,35.30,35.30,35.30,0.00,90.00,11.58,3.05,0.00,G SIWALL N1A,Other/Same Surface Int Conv,ASHRAETARP,NoSun,NoWind,0.50,0.50,0.50,0.50,4
HeatTransfer Surface,iz-G SIWALL N2A,Wall,,CTF - ConductionTransferFunction,INT_WALL,6.299,3.242,,35.30,35.30,35.30,0.00,90.00,11.58,3.05,0.00,G SIWALL N2A,Other/Same Surface Int Conv,ASHRAETARP,NoSun,NoWind,0.50,0.50,0.50,0.50,4
HeatTransfer Surface,iz-G SIWALL NEA,Wall,,CTF - ConductionTransferFunction,INT_WALL,6.299,3.242,,35.30,35.30,35.30,0.00,90.00,11.58,3.05,0.00,G SIWALL NEA,Other/Same Surface Int Conv,ASHRAETARP,NoSun,NoWind,0.50,0.50,0.50,0.50,4
HeatTransfer Surface,G FLOOR C,Floor,,CTF - ConductionTransferFunction,GFLOORC_FFACTOR,5.505E-002,5.432E-002,,77.66,77.66,77.66,90.00,180.00,1.68,46.33,0.00,FCGround,N/A-FCGround,ASHRAETARP,NoSun,NoWind,1.00,0.00,1.00,0.00,4
HeatTransfer Surface,G CEILING C,Roof,,CTF - ConductionTransferFunction,INT_SLAB_CEILING,3.839,2.228,,77.66,77.66,77.66,180.00,0.00,46.33,1.68,0.00,G CEILING C,Other/Same Surface Int Conv,ASHRAETARP,NoSun,NoWind,0.00,1.00,0.00,1.00,4
Zone Surfaces,M CORRIDOR,13
HeatTransfer Surface,M WWALL C,Wall,,CTF - ConductionTransferFunction,CN_EXT_WALL,2.013,1.547,,5.11,5.11,5.11,270.00,90.00,1.68,3.05,0.00,ExternalEnvironment,ASHRAETARP,ASHRAETARP,SunExposed,WindExposed,0.50,0.50,0.50,0.50,4
HeatTransfer Surface,M EWALL C,Wall,,CTF - ConductionTransferFunction,CN_EXT_WALL,2.013,1.547,,3.99,5.11,3.99,90.00,90.00,1.68,3.05,0.00,ExternalEnvironment,ASHRAETARP,ASHRAETARP,SunExposed,WindExposed,0.50,0.50,0.50,0.50,4
HeatTransfer Surface,MWINDOW14,Window,M EWALL C,Window5 Detailed Fenestration,NONRESWINDOW_U_0.5946_SHGC_0.25,N/A,5.807,No,1.11,1.11,1.11,90.00,90.00,0.91,1.22,0.00,ExternalEnvironment,ASHRAETARP,ASHRAETARP,SunExposed,WindExposed,0.50,0.50,0.50,0.50,4
HeatTransfer Surface,iz-M NIWALL SWA,Wall,,CTF - ConductionTransferFunction,INT_WALL,6.299,3.242,,35.30,35.30,35.30,180.00,90.00,11.58,3.05,0.00,M NIWALL SWA,Other/Same Surface Int Conv,ASHRAETARP,NoSun,NoWind,0.50,0.50,0.50,0.50,4
HeatTransfer Surface,iz-M NIWALL S1A,Wall,,CTF - ConductionTransferFunction,INT_WALL,6.299,3.242,,35.30,35.30,35.30,180.00,90.00,11.58,3.05,0.00,M NIWALL S1A,Other/Same Surface Int Conv,ASHRAETARP,NoSun,NoWind,0.50,0.50,0.50,0.50,4
HeatTransfer Surface,iz-M NIWALL S2A,Wall,,CTF - ConductionTransferFunction,INT_WALL,6.299,3.242,,35.30,35.30,35.30,180.00,90.00,11.58,3.05,0.00,M NIWALL S2A,Other/Same Surface Int Conv,ASHRAETARP,NoSun,NoWind,0.50,0.50,0.50,0.50,4
HeatTransfer Surface,iz-M NIWALL SEA,Wall,,CTF - ConductionTransferFunction,INT_WALL,6.299,3.242,,35.30,35.30,35.30,180.00,90.00,11.58,3.05,0.00,M NIWALL SEA,Other/Same Surface Int Conv,ASHRAETARP,NoSun,NoWind,0.50,0.50,0.50,0.50,4
HeatTransfer Surface,iz-M SIWALL NWA,Wall,,CTF - ConductionTransferFunction,INT_WALL,6.299,3.242,,35.30,35.30,35.30,0.00,90.00,11.58,3.05,0.00,M SIWALL NWA,Other/Same Surface Int Conv,ASHRAETARP,NoSun,NoWind,0.50,0.50,0.50,0.50,4
HeatTransfer Surface,iz-M SIWALL N1A,Wall,,CTF - ConductionTransferFunction,INT_WALL,6.299,3.242,,35.30,35.30,35.30,0.00,90.00,11.58,3.05,0.00,M SIWALL N1A,Other/Same Surface Int Conv,ASHRAETARP,NoSun,NoWind,0.50,0.50,0.50,0.50,4
HeatTransfer Surface,iz-M SIWALL N2A,Wall,,CTF - ConductionTransferFunction,INT_WALL,6.299,3.242,,35.30,35.30,35.30,0.00,90.00,11.58,3.05,0.00,M SIWALL N2A,Other/Same Surface Int Conv,ASHRAETARP,NoSun,NoWind,0.50,0.50,0.50,0.50,4
HeatTransfer Surface,iz-M SIWALL NEA,Wall,,CTF - ConductionTransferFunction,INT_WALL,6.299,3.242,,35.30,35.30,35.30,0.00,90.00,11.58,3.05,0.00,M SIWALL NEA,Other/Same Surface Int Conv,ASHRAETARP,NoSun,NoWind,0.50,0.50,0.50,0.50,4
HeatTransfer Surface,M FLOOR C,Floor,,CTF - ConductionTransferFunction,EXT_SLAB_8IN_WITH_CARPET,3.285,1.827,,77.66,77.66,77.66,90.00,180.00,1.68,46.33,0.00,M FLOOR C,Other/Same Surface Int Conv,ASHRAETARP,NoSun,NoWind,1.00,0.00,1.00,0.00,4
HeatTransfer Surface,M CEILING C,Roof,,CTF - ConductionTransferFunction,INT_SLAB_CEILING,3.839,2.228,,77.66,77.66,77.66,180.00,0.00,46.33,1.68,0.00,M CEILING C,Other/Same Surface Int Conv,ASHRAETARP,NoSun,NoWind,0.00,1.00,0.00,1.00,4
! <Environment>,Environment Name,Environment Type, Start Date, End Date, Start DayOfWeek, Duration {#days}, Source:Start DayOfWeek,  Use Daylight Saving, Use Holidays, Apply Weekend Holiday Rule,  Use Rain Values, Use Snow Values, Sky Temperature Model
! <Environment:Special Days>, Special Day Name, Special Day Type, Source, Start Date, Duration {#days}
! <Environment:Daylight Saving>, Daylight Saving Indicator, Source, Start Date, End Date
! <Environment:WarmupDays>, NumberofWarmupDays
Environment,RUNPERIOD 1,WeatherFileRunPeriod,01/01/2017,12/31/2017,Sunday,365,Use RunPeriod Specified Day,No,No,Yes,Yes,Yes,Clark and Allen
Environment:Daylight Saving,Yes,InputFile,03/12,11/05
Environment:Special Days,NEW YEAR'S DAY,Holiday,InputFile,01/02,  1
Environment:Special Days,MLK DAY,Holiday,InputFile,01/16,  1
Environment:Special Days,PRESIDENTS DAY,Holiday,InputFile,02/20,  1
Environment:Special Days,MEMORIAL DAY,Holiday,InputFile,05/29,  1
Environment:Special Days,INDEPENDENCE DAY,Holiday,InputFile,07/04,  1
Environment:Special Days,LABOR DAY,Holiday,InputFile,09/04,  1
Environment:Special Days,COLUMBUS DAY,Holiday,InputFile,10/09,  1
Environment:Special Days,THANKSGIVING,Holiday,InputFile,11/23,  1
Environment:Special Days,VETERANS DAY,Holiday,InputFile,11/13,  1
Environment:Special Days,CHRISTMAS,Holiday,InputFile,12/25,  1
Environment:WarmupDays,  6
! <Tabular Report>,Style,Unit Conversion, Format Reals
Tabular Report,COMMAANDHTML,None,Yes
! <Warmup Convergence Information>,Zone Name,Environment Type/Name,Average Warmup Temperature Difference {deltaC},Std Dev Warmup Temperature Difference {deltaC},Max Temperature Pass/Fail Convergence,Min Temperature Pass/Fail Convergence,Average Warmup Load Difference {W},Std Dev Warmup Load Difference {W},Heating Load Pass/Fail Convergence,Cooling Load Pass/Fail Convergence
 Warmup Convergence Information,G SW APARTMENT,RunPeriod: RUNPERIOD 1,8.0957795307E-008,6.7662784419E-007,Pass,Pass,8.1454365239E-003,2.4581071637E-002,Pass,Pass
 Warmup Convergence Information,G NW APARTMENT,RunPeriod: RUNPERIOD 1,2.2671738950E-007,1.8945285935E-006,Pass,Pass,7.7874494740E-003,2.3118997964E-002,Pass,Pass
 Warmup Convergence Information,OFFICE,RunPeriod: RUNPERIOD 1,4.2198778866E-008,3.3695989941E-007,Pass,Pass,1.0335939850E-002,3.2743688158E-002,Pass,Pass
 Warmup Convergence Information,G NE APARTMENT,RunPeriod: RUNPERIOD 1,2.2582857438E-007,1.8873091225E-006,Pass,Pass,7.9711899477E-003,2.3961822616E-002,Pass,Pass
 Warmup Convergence Information,G N1 APARTMENT,RunPeriod: RUNPERIOD 1,1.9858802987E-007,1.6616877826E-006,Pass,Pass,6.5165647229E-003,1.6809125789E-002,Pass,Pass
 Warmup Convergence Information,G N2 APARTMENT,RunPeriod: RUNPERIOD 1,1.9856295016E-007,1.6614826051E-006,Pass,Pass,6.5184173410E-003,1.6811937016E-002,Pass,Pass
 Warmup Convergence Information,G S1 APARTMENT,RunPeriod: RUNPERIOD 1,7.0246141669E-008,5.8786813863E-007,Pass,Pass,6.9313492382E-003,1.8336771331E-002,Pass,Pass
 Warmup Convergence Information,G S2 APARTMENT,RunPeriod: RUNPERIOD 1,7.3511936538E-008,6.1499671165E-007,Pass,Pass,6.5863854373E-003,1.7399517864E-002,Pass,Pass
 Warmup Convergence Information,M SW APARTMENT,RunPeriod: RUNPERIOD 1,7.7020225383E-008,6.4413485063E-007,Pass,Pass,8.8860675326E-003,2.6362144185E-002,Pass,Pass
 Warmup Convergence Information,M NW APARTMENT,RunPeriod: RUNPERIOD 1,2.1589211816E-007,1.8052561515E-006,Pass,Pass,8.4365708274E-003,2.4623121545E-002,Pass,Pass
 Warmup Convergence Information,M SE APARTMENT,RunPeriod: RUNPERIOD 1,7.6600829679E-008,6.4070349403E-007,Pass,Pass,9.1290588259E-003,2.7438987587E-002,Pass,Pass
 Warmup Convergence Information,M NE APARTMENT,RunPeriod: RUNPERIOD 1,2.1488283947E-007,1.7970278171E-006,Pass,Pass,8.6698695255E-003,2.5671268128E-002,Pass,Pass
 Warmup Convergence Information,M N1 APARTMENT,RunPeriod: RUNPERIOD 1,1.8917321095E-007,1.5837166232E-006,Pass,Pass,7.0536375211E-003,1.7891129516E-002,Pass,Pass
 Warmup Convergence Information,M N2 APARTMENT,RunPeriod: RUNPERIOD 1,1.8915037228E-007,1.5835295059E-006,Pass,Pass,7.0555723014E-003,1.7893993139E-002,Pass,Pass
 Warmup Convergence Information,M S1 APARTMENT,RunPeriod: RUNPERIOD 1,6.6768064682E-008,5.5904090406E-007,Pass,Pass,7.5493513015E-003,1.9773883416E-002,Pass,Pass
 Warmup Convergence Information,M S2 APARTMENT,RunPeriod: RUNPERIOD 1,6.6758716283E-008,5.5896407404E-007,Pass,Pass,7.5513814434E-003,1.9777121787E-002,Pass,Pass
 Warmup Convergence Information,T SW APARTMENT,RunPeriod: RUNPERIOD 1,1.0444810079E-007,8.7034302184E-007,Pass,Pass,1.0559530390E-002,3.1992480552E-002,Pass,Pass
 Warmup Convergence Information,T NW APARTMENT,RunPeriod: RUNPERIOD 1,2.8706731449E-007,2.3915934091E-006,Pass,Pass,1.0092190997E-002,3.0388931120E-002,Pass,Pass
 Warmup Convergence Information,T SE APARTMENT,RunPeriod: RUNPERIOD 1,1.0403356107E-007,8.6701363029E-007,Pass,Pass,1.0790096845E-002,3.2997983056E-002,Pass,Pass
 Warmup Convergence Information,T NE APARTMENT,RunPeriod: RUNPERIOD 1,2.8618453516E-007,2.3846495337E-006,Pass,Pass,1.0319689735E-002,3.1373815943E-002,Pass,Pass
 Warmup Convergence Information,T N1 APARTMENT,RunPeriod: RUNPERIOD 1,2.6293169296E-007,2.1932199885E-006,Pass,Pass,8.8750499426E-003,2.4733765527E-002,Pass,Pass
 Warmup Convergence Information,T N2 APARTMENT,RunPeriod: RUNPERIOD 1,2.6291182392E-007,2.1930664103E-006,Pass,Pass,8.8777708839E-003,2.4736522798E-002,Pass,Pass
 Warmup Convergence Information,T S1 APARTMENT,RunPeriod: RUNPERIOD 1,9.4936559922E-008,7.9223743169E-007,Pass,Pass,9.3748835144E-003,2.6441907532E-002,Pass,Pass
 Warmup Convergence Information,T S2 APARTMENT,RunPeriod: RUNPERIOD 1,9.4925815874E-008,7.9214851531E-007,Pass,Pass,9.3778927056E-003,2.6444882240E-002,Pass,Pass
 Warmup Convergence Information,T CORRIDOR,RunPeriod: RUNPERIOD 1,1.3726399214E-002,1.3832594736E-002,Pass,Pass,0.0000000000,0.0000000000,Pass,Pass
 Warmup Convergence Information,G CORRIDOR,RunPeriod: RUNPERIOD 1,4.3476859550E-002,0.1175049926,Pass,Pass,0.0000000000,0.0000000000,Pass,Pass
 Warmup Convergence Information,M CORRIDOR,RunPeriod: RUNPERIOD 1,9.0930939704E-003,1.0362448747E-002,Pass,Pass,0.0000000000,0.0000000000,Pass,Pass
! <Program Control Information:Threads/Parallel Sims>, Threading Supported,Maximum Number of Threads, Env Set Threads (OMP_NUM_THREADS), EP Env Set Threads (EP_OMP_NUM_THREADS), IDF Set Threads, Number of Threads Used (Interior Radiant Exchange), Number Nominal Surfaces, Number Parallel Sims
Program Control Information:Threads/Parallel Sims, No,1, N/A, N/A, N/A, N/A, N/A, N/A
End of Data
