Program Version,EnergyPlus, Version 26.1.0-6f2e40d102, YMD=2026.04.14 19:02
! This file shows details about the branches, nodes, and other
! elements of the flow connections.
! This file is intended for use in "debugging" potential problems
! that may also be detected by the program, but may be more easily
! identified by "eye".
! This file is also intended to support software which draws a
! schematic diagram of the HVAC system.
! ===============================================================
! #Nodes,<Number of Unique Nodes>
 #Nodes,450
! <Node>,<NodeNumber>,<Node Name>,<Node Fluid Type>,<# Times Node Referenced After Definition>
 Node,1,G SW APARTMENT ZONE EXHAUST NODE,Air,3
 Node,2,G SW APARTMENT DIRECT AIR INLET NODE,Air,5
 Node,3,G SW APARTMENT ERV SUP FAN OUTLET NODE,Air,3
 Node,4,SPLIT GSW OAINLET NODE,Air,3
 Node,5,G NW APARTMENT ZONE EXHAUST NODE,Air,3
 Node,6,G NW APARTMENT DIRECT AIR INLET NODE,Air,5
 Node,7,G NW APARTMENT ERV SUP FAN OUTLET NODE,Air,3
 Node,8,SPLIT GNW OAINLET NODE,Air,3
 Node,9,OFFICE DIRECT AIR INLET NODE,Air,5
 Node,10,SPLIT OFFICE OAINLET NODE,Air,3
 Node,11,G NE APARTMENT ZONE EXHAUST NODE,Air,3
 Node,12,G NE APARTMENT DIRECT AIR INLET NODE,Air,5
 Node,13,G NE APARTMENT ERV SUP FAN OUTLET NODE,Air,3
 Node,14,SPLIT GNE OAINLET NODE,Air,3
 Node,15,G N1 APARTMENT ZONE EXHAUST NODE,Air,3
 Node,16,G N1 APARTMENT DIRECT AIR INLET NODE,Air,5
 Node,17,G N1 APARTMENT ERV SUP FAN OUTLET NODE,Air,3
 Node,18,SPLIT GN1 OAINLET NODE,Air,3
 Node,19,G N2 APARTMENT ZONE EXHAUST NODE,Air,3
 Node,20,G N2 APARTMENT DIRECT AIR INLET NODE,Air,5
 Node,21,G N2 APARTMENT ERV SUP FAN OUTLET NODE,Air,3
 Node,22,SPLIT GN2 OAINLET NODE,Air,3
 Node,23,G S1 APARTMENT ZONE EXHAUST NODE,Air,3
 Node,24,G S1 APARTMENT DIRECT AIR INLET NODE,Air,5
 Node,25,G S1 APARTMENT ERV SUP FAN OUTLET NODE,Air,3
 Node,26,SPLIT GS1 OAINLET NODE,Air,3
 Node,27,G S2 APARTMENT ZONE EXHAUST NODE,Air,3
 Node,28,G S2 APARTMENT DIRECT AIR INLET NODE,Air,5
 Node,29,G S2 APARTMENT ERV SUP FAN OUTLET NODE,Air,3
 Node,30,SPLIT GS2 OAINLET NODE,Air,3
 Node,31,M SW APARTMENT ZONE EXHAUST NODE,Air,3
 Node,32,M SW APARTMENT DIRECT AIR INLET NODE,Air,5
 Node,33,M SW APARTMENT ERV SUP FAN OUTLET NODE,Air,3
 Node,34,SPLIT MSW OAINLET NODE,Air,3
 Node,35,M NW APARTMENT ZONE EXHAUST NODE,Air,3
 Node,36,M NW APARTMENT DIRECT AIR INLET NODE,Air,5
 Node,37,M NW APARTMENT ERV SUP FAN OUTLET NODE,Air,3
 Node,38,SPLIT MNW OAINLET NODE,Air,3
 Node,39,M SE APARTMENT ZONE EXHAUST NODE,Air,3
 Node,40,M SE APARTMENT DIRECT AIR INLET NODE,Air,5
 Node,41,M SE APARTMENT ERV SUP FAN OUTLET NODE,Air,3
 Node,42,SPLIT MSE OAINLET NODE,Air,3
 Node,43,M NE APARTMENT ZONE EXHAUST NODE,Air,3
 Node,44,M NE APARTMENT DIRECT AIR INLET NODE,Air,5
 Node,45,M NE APARTMENT ERV SUP FAN OUTLET NODE,Air,3
 Node,46,SPLIT MNE OAINLET NODE,Air,3
 Node,47,M N1 APARTMENT ZONE EXHAUST NODE,Air,3
 Node,48,M N1 APARTMENT DIRECT AIR INLET NODE,Air,5
 Node,49,M N1 APARTMENT ERV SUP FAN OUTLET NODE,Air,3
 Node,50,SPLIT MN1 OAINLET NODE,Air,3
 Node,51,M N2 APARTMENT ZONE EXHAUST NODE,Air,3
 Node,52,M N2 APARTMENT DIRECT AIR INLET NODE,Air,5
 Node,53,M N2 APARTMENT ERV SUP FAN OUTLET NODE,Air,3
 Node,54,SPLIT MN2 OAINLET NODE,Air,3
 Node,55,M S1 APARTMENT ZONE EXHAUST NODE,Air,3
 Node,56,M S1 APARTMENT DIRECT AIR INLET NODE,Air,5
 Node,57,M S1 APARTMENT ERV SUP FAN OUTLET NODE,Air,3
 Node,58,SPLIT MS1 OAINLET NODE,Air,3
 Node,59,M S2 APARTMENT ZONE EXHAUST NODE,Air,3
 Node,60,M S2 APARTMENT DIRECT AIR INLET NODE,Air,5
 Node,61,M S2 APARTMENT ERV SUP FAN OUTLET NODE,Air,3
 Node,62,SPLIT MS2 OAINLET NODE,Air,3
 Node,63,T SW APARTMENT ZONE EXHAUST NODE,Air,3
 Node,64,T SW APARTMENT DIRECT AIR INLET NODE,Air,5
 Node,65,T SW APARTMENT ERV SUP FAN OUTLET NODE,Air,3
 Node,66,SPLIT TSW OAINLET NODE,Air,3
 Node,67,T NW APARTMENT ZONE EXHAUST NODE,Air,3
 Node,68,T NW APARTMENT DIRECT AIR INLET NODE,Air,5
 Node,69,T NW APARTMENT ERV SUP FAN OUTLET NODE,Air,3
 Node,70,SPLIT TNW OAINLET NODE,Air,3
 Node,71,T SE APARTMENT ZONE EXHAUST NODE,Air,3
 Node,72,T SE APARTMENT DIRECT AIR INLET NODE,Air,5
 Node,73,T SE APARTMENT ERV SUP FAN OUTLET NODE,Air,3
 Node,74,SPLIT TSE OAINLET NODE,Air,3
 Node,75,T NE APARTMENT ZONE EXHAUST NODE,Air,3
 Node,76,T NE APARTMENT DIRECT AIR INLET NODE,Air,5
 Node,77,T NE APARTMENT ERV SUP FAN OUTLET NODE,Air,3
 Node,78,SPLIT TNE OAINLET NODE,Air,3
 Node,79,T N1 APARTMENT ZONE EXHAUST NODE,Air,3
 Node,80,T N1 APARTMENT DIRECT AIR INLET NODE,Air,5
 Node,81,T N1 APARTMENT ERV SUP FAN OUTLET NODE,Air,3
 Node,82,SPLIT TN1 OAINLET NODE,Air,3
 Node,83,T N2 APARTMENT ZONE EXHAUST NODE,Air,3
 Node,84,T N2 APARTMENT DIRECT AIR INLET NODE,Air,5
 Node,85,T N2 APARTMENT ERV SUP FAN OUTLET NODE,Air,3
 Node,86,SPLIT TN2 OAINLET NODE,Air,3
 Node,87,T S1 APARTMENT ZONE EXHAUST NODE,Air,3
 Node,88,T S1 APARTMENT DIRECT AIR INLET NODE,Air,5
 Node,89,T S1 APARTMENT ERV SUP FAN OUTLET NODE,Air,3
 Node,90,SPLIT TS1 OAINLET NODE,Air,3
 Node,91,T S2 APARTMENT ZONE EXHAUST NODE,Air,3
 Node,92,T S2 APARTMENT DIRECT AIR INLET NODE,Air,5
 Node,93,T S2 APARTMENT ERV SUP FAN OUTLET NODE,Air,3
 Node,94,SPLIT TS2 OAINLET NODE,Air,3
 Node,95,SPLIT GSW SUPPLY EQUIPMENT INLET NODE,Air,3
 Node,96,SPLIT GSW MIXED AIR OUTLET,Air,7
 Node,97,SPLIT GSW SUPPLY EQUIPMENT OUTLET NODE,Air,4
 Node,98,SPLIT GNW SUPPLY EQUIPMENT INLET NODE,Air,3
 Node,99,SPLIT GNW MIXED AIR OUTLET,Air,7
 Node,100,SPLIT GNW SUPPLY EQUIPMENT OUTLET NODE,Air,4
 Node,101,SPLIT OFFICE SUPPLY EQUIPMENT INLET NODE,Air,3
 Node,102,SPLIT OFFICE MIXED AIR OUTLET,Air,7
 Node,103,SPLIT OFFICE SUPPLY EQUIPMENT OUTLET NODE,Air,4
 Node,104,SPLIT GNE SUPPLY EQUIPMENT INLET NODE,Air,3
 Node,105,SPLIT GNE MIXED AIR OUTLET,Air,7
 Node,106,SPLIT GNE SUPPLY EQUIPMENT OUTLET NODE,Air,4
 Node,107,SPLIT GN1 SUPPLY EQUIPMENT INLET NODE,Air,3
 Node,108,SPLIT GN1 MIXED AIR OUTLET,Air,7
 Node,109,SPLIT GN1 SUPPLY EQUIPMENT OUTLET NODE,Air,4
 Node,110,SPLIT GN2 SUPPLY EQUIPMENT INLET NODE,Air,3
 Node,111,SPLIT GN2 MIXED AIR OUTLET,Air,7
 Node,112,SPLIT GN2 SUPPLY EQUIPMENT OUTLET NODE,Air,4
 Node,113,SPLIT GS1 SUPPLY EQUIPMENT INLET NODE,Air,3
 Node,114,SPLIT GS1 MIXED AIR OUTLET,Air,7
 Node,115,SPLIT GS1 SUPPLY EQUIPMENT OUTLET NODE,Air,4
 Node,116,SPLIT GS2 SUPPLY EQUIPMENT INLET NODE,Air,3
 Node,117,SPLIT GS2 MIXED AIR OUTLET,Air,7
 Node,118,SPLIT GS2 SUPPLY EQUIPMENT OUTLET NODE,Air,4
 Node,119,SPLIT MSW SUPPLY EQUIPMENT INLET NODE,Air,3
 Node,120,SPLIT MSW MIXED AIR OUTLET,Air,7
 Node,121,SPLIT MSW SUPPLY EQUIPMENT OUTLET NODE,Air,4
 Node,122,SPLIT MNW SUPPLY EQUIPMENT INLET NODE,Air,3
 Node,123,SPLIT MNW MIXED AIR OUTLET,Air,7
 Node,124,SPLIT MNW SUPPLY EQUIPMENT OUTLET NODE,Air,4
 Node,125,SPLIT MSE SUPPLY EQUIPMENT INLET NODE,Air,3
 Node,126,SPLIT MSE MIXED AIR OUTLET,Air,7
 Node,127,SPLIT MSE SUPPLY EQUIPMENT OUTLET NODE,Air,4
 Node,128,SPLIT MNE SUPPLY EQUIPMENT INLET NODE,Air,3
 Node,129,SPLIT MNE MIXED AIR OUTLET,Air,7
 Node,130,SPLIT MNE SUPPLY EQUIPMENT OUTLET NODE,Air,4
 Node,131,SPLIT MN1 SUPPLY EQUIPMENT INLET NODE,Air,3
 Node,132,SPLIT MN1 MIXED AIR OUTLET,Air,7
 Node,133,SPLIT MN1 SUPPLY EQUIPMENT OUTLET NODE,Air,4
 Node,134,SPLIT MN2 SUPPLY EQUIPMENT INLET NODE,Air,3
 Node,135,SPLIT MN2 MIXED AIR OUTLET,Air,7
 Node,136,SPLIT MN2 SUPPLY EQUIPMENT OUTLET NODE,Air,4
 Node,137,SPLIT MS1 SUPPLY EQUIPMENT INLET NODE,Air,3
 Node,138,SPLIT MS1 MIXED AIR OUTLET,Air,7
 Node,139,SPLIT MS1 SUPPLY EQUIPMENT OUTLET NODE,Air,4
 Node,140,SPLIT MS2 SUPPLY EQUIPMENT INLET NODE,Air,3
 Node,141,SPLIT MS2 MIXED AIR OUTLET,Air,7
 Node,142,SPLIT MS2 SUPPLY EQUIPMENT OUTLET NODE,Air,4
 Node,143,SPLIT TSW SUPPLY EQUIPMENT INLET NODE,Air,3
 Node,144,SPLIT TSW MIXED AIR OUTLET,Air,7
 Node,145,SPLIT TSW SUPPLY EQUIPMENT OUTLET NODE,Air,4
 Node,146,SPLIT TNW SUPPLY EQUIPMENT INLET NODE,Air,3
 Node,147,SPLIT TNW MIXED AIR OUTLET,Air,7
 Node,148,SPLIT TNW SUPPLY EQUIPMENT OUTLET NODE,Air,4
 Node,149,SPLIT TSE SUPPLY EQUIPMENT INLET NODE,Air,3
 Node,150,SPLIT TSE MIXED AIR OUTLET,Air,7
 Node,151,SPLIT TSE SUPPLY EQUIPMENT OUTLET NODE,Air,4
 Node,152,SPLIT TNE SUPPLY EQUIPMENT INLET NODE,Air,3
 Node,153,SPLIT TNE MIXED AIR OUTLET,Air,7
 Node,154,SPLIT TNE SUPPLY EQUIPMENT OUTLET NODE,Air,4
 Node,155,SPLIT TN1 SUPPLY EQUIPMENT INLET NODE,Air,3
 Node,156,SPLIT TN1 MIXED AIR OUTLET,Air,7
 Node,157,SPLIT TN1 SUPPLY EQUIPMENT OUTLET NODE,Air,4
 Node,158,SPLIT TN2 SUPPLY EQUIPMENT INLET NODE,Air,3
 Node,159,SPLIT TN2 MIXED AIR OUTLET,Air,7
 Node,160,SPLIT TN2 SUPPLY EQUIPMENT OUTLET NODE,Air,4
 Node,161,SPLIT TS1 SUPPLY EQUIPMENT INLET NODE,Air,3
 Node,162,SPLIT TS1 MIXED AIR OUTLET,Air,7
 Node,163,SPLIT TS1 SUPPLY EQUIPMENT OUTLET NODE,Air,4
 Node,164,SPLIT TS2 SUPPLY EQUIPMENT INLET NODE,Air,3
 Node,165,SPLIT TS2 MIXED AIR OUTLET,Air,7
 Node,166,SPLIT TS2 SUPPLY EQUIPMENT OUTLET NODE,Air,4
 Node,167,G SW APARTMENT AIR NODE,Air,2
 Node,168,G SW APARTMENT RETURN AIR NODE,Air,1
 Node,169,G NW APARTMENT AIR NODE,Air,2
 Node,170,G NW APARTMENT RETURN AIR NODE,Air,1
 Node,171,OFFICE AIR NODE,Air,2
 Node,172,OFFICE RETURN AIR NODE,Air,1
 Node,173,G NE APARTMENT AIR NODE,Air,2
 Node,174,G NE APARTMENT RETURN AIR NODE,Air,1
 Node,175,G N1 APARTMENT AIR NODE,Air,2
 Node,176,G N1 APARTMENT RETURN AIR NODE,Air,1
 Node,177,G N2 APARTMENT AIR NODE,Air,2
 Node,178,G N2 APARTMENT RETURN AIR NODE,Air,1
 Node,179,G S1 APARTMENT AIR NODE,Air,2
 Node,180,G S1 APARTMENT RETURN AIR NODE,Air,1
 Node,181,G S2 APARTMENT AIR NODE,Air,2
 Node,182,G S2 APARTMENT RETURN AIR NODE,Air,1
 Node,183,M SW APARTMENT AIR NODE,Air,2
 Node,184,M SW APARTMENT RETURN AIR NODE,Air,1
 Node,185,M NW APARTMENT AIR NODE,Air,2
 Node,186,M NW APARTMENT RETURN AIR NODE,Air,1
 Node,187,M SE APARTMENT AIR NODE,Air,2
 Node,188,M SE APARTMENT RETURN AIR NODE,Air,1
 Node,189,M NE APARTMENT AIR NODE,Air,2
 Node,190,M NE APARTMENT RETURN AIR NODE,Air,1
 Node,191,M N1 APARTMENT AIR NODE,Air,2
 Node,192,M N1 APARTMENT RETURN AIR NODE,Air,1
 Node,193,M N2 APARTMENT AIR NODE,Air,2
 Node,194,M N2 APARTMENT RETURN AIR NODE,Air,1
 Node,195,M S1 APARTMENT AIR NODE,Air,2
 Node,196,M S1 APARTMENT RETURN AIR NODE,Air,1
 Node,197,M S2 APARTMENT AIR NODE,Air,2
 Node,198,M S2 APARTMENT RETURN AIR NODE,Air,1
 Node,199,T SW APARTMENT AIR NODE,Air,2
 Node,200,T SW APARTMENT RETURN AIR NODE,Air,1
 Node,201,T NW APARTMENT AIR NODE,Air,2
 Node,202,T NW APARTMENT RETURN AIR NODE,Air,1
 Node,203,T SE APARTMENT AIR NODE,Air,2
 Node,204,T SE APARTMENT RETURN AIR NODE,Air,1
 Node,205,T NE APARTMENT AIR NODE,Air,2
 Node,206,T NE APARTMENT RETURN AIR NODE,Air,1
 Node,207,T N1 APARTMENT AIR NODE,Air,2
 Node,208,T N1 APARTMENT RETURN AIR NODE,Air,1
 Node,209,T N2 APARTMENT AIR NODE,Air,2
 Node,210,T N2 APARTMENT RETURN AIR NODE,Air,1
 Node,211,T S1 APARTMENT AIR NODE,Air,2
 Node,212,T S1 APARTMENT RETURN AIR NODE,Air,1
 Node,213,T S2 APARTMENT AIR NODE,Air,2
 Node,214,T S2 APARTMENT RETURN AIR NODE,Air,1
 Node,215,SPLIT GSW ZONE EQUIPMENT INLET NODE,Air,4
 Node,216,SPLIT GNW ZONE EQUIPMENT INLET NODE,Air,4
 Node,217,SPLIT OFFICE ZONE EQUIPMENT INLET NODE,Air,4
 Node,218,SPLIT GNE ZONE EQUIPMENT INLET NODE,Air,4
 Node,219,SPLIT GN1 ZONE EQUIPMENT INLET NODE,Air,4
 Node,220,SPLIT GN2 ZONE EQUIPMENT INLET NODE,Air,4
 Node,221,SPLIT GS1 ZONE EQUIPMENT INLET NODE,Air,4
 Node,222,SPLIT GS2 ZONE EQUIPMENT INLET NODE,Air,4
 Node,223,SPLIT MSW ZONE EQUIPMENT INLET NODE,Air,4
 Node,224,SPLIT MNW ZONE EQUIPMENT INLET NODE,Air,4
 Node,225,SPLIT MSE ZONE EQUIPMENT INLET NODE,Air,4
 Node,226,SPLIT MNE ZONE EQUIPMENT INLET NODE,Air,4
 Node,227,SPLIT MN1 ZONE EQUIPMENT INLET NODE,Air,4
 Node,228,SPLIT MN2 ZONE EQUIPMENT INLET NODE,Air,4
 Node,229,SPLIT MS1 ZONE EQUIPMENT INLET NODE,Air,4
 Node,230,SPLIT MS2 ZONE EQUIPMENT INLET NODE,Air,4
 Node,231,SPLIT TSW ZONE EQUIPMENT INLET NODE,Air,4
 Node,232,SPLIT TNW ZONE EQUIPMENT INLET NODE,Air,4
 Node,233,SPLIT TSE ZONE EQUIPMENT INLET NODE,Air,4
 Node,234,SPLIT TNE ZONE EQUIPMENT INLET NODE,Air,4
 Node,235,SPLIT TN1 ZONE EQUIPMENT INLET NODE,Air,4
 Node,236,SPLIT TN2 ZONE EQUIPMENT INLET NODE,Air,4
 Node,237,SPLIT TS1 ZONE EQUIPMENT INLET NODE,Air,4
 Node,238,SPLIT TS2 ZONE EQUIPMENT INLET NODE,Air,4
 Node,239,SPLIT GSW ZONE EQUIPMENT OUTLET NODE,Air,2
 Node,240,SPLIT GNW ZONE EQUIPMENT OUTLET NODE,Air,2
 Node,241,SPLIT OFFICE ZONE EQUIPMENT OUTLET NODE,Air,2
 Node,242,SPLIT GNE ZONE EQUIPMENT OUTLET NODE,Air,2
 Node,243,SPLIT GN1 ZONE EQUIPMENT OUTLET NODE,Air,2
 Node,244,SPLIT GN2 ZONE EQUIPMENT OUTLET NODE,Air,2
 Node,245,SPLIT GS1 ZONE EQUIPMENT OUTLET NODE,Air,2
 Node,246,SPLIT GS2 ZONE EQUIPMENT OUTLET NODE,Air,2
 Node,247,SPLIT MSW ZONE EQUIPMENT OUTLET NODE,Air,2
 Node,248,SPLIT MNW ZONE EQUIPMENT OUTLET NODE,Air,2
 Node,249,SPLIT MSE ZONE EQUIPMENT OUTLET NODE,Air,2
 Node,250,SPLIT MNE ZONE EQUIPMENT OUTLET NODE,Air,2
 Node,251,SPLIT MN1 ZONE EQUIPMENT OUTLET NODE,Air,2
 Node,252,SPLIT MN2 ZONE EQUIPMENT OUTLET NODE,Air,2
 Node,253,SPLIT MS1 ZONE EQUIPMENT OUTLET NODE,Air,2
 Node,254,SPLIT MS2 ZONE EQUIPMENT OUTLET NODE,Air,2
 Node,255,SPLIT TSW ZONE EQUIPMENT OUTLET NODE,Air,2
 Node,256,SPLIT TNW ZONE EQUIPMENT OUTLET NODE,Air,2
 Node,257,SPLIT TSE ZONE EQUIPMENT OUTLET NODE,Air,2
 Node,258,SPLIT TNE ZONE EQUIPMENT OUTLET NODE,Air,2
 Node,259,SPLIT TN1 ZONE EQUIPMENT OUTLET NODE,Air,2
 Node,260,SPLIT TN2 ZONE EQUIPMENT OUTLET NODE,Air,2
 Node,261,SPLIT TS1 ZONE EQUIPMENT OUTLET NODE,Air,2
 Node,262,SPLIT TS2 ZONE EQUIPMENT OUTLET NODE,Air,2
 Node,263,G SW APARTMENT OUTSIDE AIR NODE,Air,2
 Node,264,G NW APARTMENT OUTSIDE AIR NODE,Air,2
 Node,265,G NE APARTMENT OUTSIDE AIR NODE,Air,2
 Node,266,G N1 APARTMENT OUTSIDE AIR NODE,Air,2
 Node,267,G N2 APARTMENT OUTSIDE AIR NODE,Air,2
 Node,268,G S1 APARTMENT OUTSIDE AIR NODE,Air,2
 Node,269,G S2 APARTMENT OUTSIDE AIR NODE,Air,2
 Node,270,M SW APARTMENT OUTSIDE AIR NODE,Air,2
 Node,271,M NW APARTMENT OUTSIDE AIR NODE,Air,2
 Node,272,M SE APARTMENT OUTSIDE AIR NODE,Air,2
 Node,273,M NE APARTMENT OUTSIDE AIR NODE,Air,2
 Node,274,M N1 APARTMENT OUTSIDE AIR NODE,Air,2
 Node,275,M N2 APARTMENT OUTSIDE AIR NODE,Air,2
 Node,276,M S1 APARTMENT OUTSIDE AIR NODE,Air,2
 Node,277,M S2 APARTMENT OUTSIDE AIR NODE,Air,2
 Node,278,T SW APARTMENT OUTSIDE AIR NODE,Air,2
 Node,279,T NW APARTMENT OUTSIDE AIR NODE,Air,2
 Node,280,T SE APARTMENT OUTSIDE AIR NODE,Air,2
 Node,281,T NE APARTMENT OUTSIDE AIR NODE,Air,2
 Node,282,T N1 APARTMENT OUTSIDE AIR NODE,Air,2
 Node,283,T N2 APARTMENT OUTSIDE AIR NODE,Air,2
 Node,284,T S1 APARTMENT OUTSIDE AIR NODE,Air,2
 Node,285,T S2 APARTMENT OUTSIDE AIR NODE,Air,2
 Node,286,SPLIT GSW SUPPLY FAN OUTLET,Air,2
 Node,287,SPLIT GNW SUPPLY FAN OUTLET,Air,2
 Node,288,SPLIT OFFICE SUPPLY FAN OUTLET,Air,2
 Node,289,SPLIT GNE SUPPLY FAN OUTLET,Air,2
 Node,290,SPLIT GN1 SUPPLY FAN OUTLET,Air,2
 Node,291,SPLIT GN2 SUPPLY FAN OUTLET,Air,2
 Node,292,SPLIT GS1 SUPPLY FAN OUTLET,Air,2
 Node,293,SPLIT GS2 SUPPLY FAN OUTLET,Air,2
 Node,294,SPLIT MSW SUPPLY FAN OUTLET,Air,2
 Node,295,SPLIT MNW SUPPLY FAN OUTLET,Air,2
 Node,296,SPLIT MSE SUPPLY FAN OUTLET,Air,2
 Node,297,SPLIT MNE SUPPLY FAN OUTLET,Air,2
 Node,298,SPLIT MN1 SUPPLY FAN OUTLET,Air,2
 Node,299,SPLIT MN2 SUPPLY FAN OUTLET,Air,2
 Node,300,SPLIT MS1 SUPPLY FAN OUTLET,Air,2
 Node,301,SPLIT MS2 SUPPLY FAN OUTLET,Air,2
 Node,302,SPLIT TSW SUPPLY FAN OUTLET,Air,2
 Node,303,SPLIT TNW SUPPLY FAN OUTLET,Air,2
 Node,304,SPLIT TSE SUPPLY FAN OUTLET,Air,2
 Node,305,SPLIT TNE SUPPLY FAN OUTLET,Air,2
 Node,306,SPLIT TN1 SUPPLY FAN OUTLET,Air,2
 Node,307,SPLIT TN2 SUPPLY FAN OUTLET,Air,2
 Node,308,SPLIT TS1 SUPPLY FAN OUTLET,Air,2
 Node,309,SPLIT TS2 SUPPLY FAN OUTLET,Air,2
 Node,310,G SW APARTMENT ADU INLET NODE,Air,1
 Node,311,G NW APARTMENT ADU INLET NODE,Air,1
 Node,312,OFFICE ADU INLET NODE,Air,1
 Node,313,G NE APARTMENT ADU INLET NODE,Air,1
 Node,314,G N1 APARTMENT ADU INLET NODE,Air,1
 Node,315,G N2 APARTMENT ADU INLET NODE,Air,1
 Node,316,G S1 APARTMENT ADU INLET NODE,Air,1
 Node,317,G S2 APARTMENT ADU INLET NODE,Air,1
 Node,318,M SW APARTMENT ADU INLET NODE,Air,1
 Node,319,M NW APARTMENT ADU INLET NODE,Air,1
 Node,320,M SE APARTMENT ADU INLET NODE,Air,1
 Node,321,M NE APARTMENT ADU INLET NODE,Air,1
 Node,322,M N1 APARTMENT ADU INLET NODE,Air,1
 Node,323,M N2 APARTMENT ADU INLET NODE,Air,1
 Node,324,M S1 APARTMENT ADU INLET NODE,Air,1
 Node,325,M S2 APARTMENT ADU INLET NODE,Air,1
 Node,326,T SW APARTMENT ADU INLET NODE,Air,1
 Node,327,T NW APARTMENT ADU INLET NODE,Air,1
 Node,328,T SE APARTMENT ADU INLET NODE,Air,1
 Node,329,T NE APARTMENT ADU INLET NODE,Air,1
 Node,330,T N1 APARTMENT ADU INLET NODE,Air,1
 Node,331,T N2 APARTMENT ADU INLET NODE,Air,1
 Node,332,T S1 APARTMENT ADU INLET NODE,Air,1
 Node,333,T S2 APARTMENT ADU INLET NODE,Air,1
 Node,334,G SW APARTMENT ERV OUTLET NODE,Air,1
 Node,335,G SW APARTMENT ERV SECONDARY OUTLET NODE,Air,1
 Node,336,G NW APARTMENT ERV OUTLET NODE,Air,1
 Node,337,G NW APARTMENT ERV SECONDARY OUTLET NODE,Air,1
 Node,338,G NE APARTMENT ERV OUTLET NODE,Air,1
 Node,339,G NE APARTMENT ERV SECONDARY OUTLET NODE,Air,1
 Node,340,G N1 APARTMENT ERV OUTLET NODE,Air,1
 Node,341,G N1 APARTMENT ERV SECONDARY OUTLET NODE,Air,1
 Node,342,G N2 APARTMENT ERV OUTLET NODE,Air,1
 Node,343,G N2 APARTMENT ERV SECONDARY OUTLET NODE,Air,1
 Node,344,G S1 APARTMENT ERV OUTLET NODE,Air,1
 Node,345,G S1 APARTMENT ERV SECONDARY OUTLET NODE,Air,1
 Node,346,G S2 APARTMENT ERV OUTLET NODE,Air,1
 Node,347,G S2 APARTMENT ERV SECONDARY OUTLET NODE,Air,1
 Node,348,M SW APARTMENT ERV OUTLET NODE,Air,1
 Node,349,M SW APARTMENT ERV SECONDARY OUTLET NODE,Air,1
 Node,350,M NW APARTMENT ERV OUTLET NODE,Air,1
 Node,351,M NW APARTMENT ERV SECONDARY OUTLET NODE,Air,1
 Node,352,M SE APARTMENT ERV OUTLET NODE,Air,1
 Node,353,M SE APARTMENT ERV SECONDARY OUTLET NODE,Air,1
 Node,354,M NE APARTMENT ERV OUTLET NODE,Air,1
 Node,355,M NE APARTMENT ERV SECONDARY OUTLET NODE,Air,1
 Node,356,M N1 APARTMENT ERV OUTLET NODE,Air,1
 Node,357,M N1 APARTMENT ERV SECONDARY OUTLET NODE,Air,1
 Node,358,M N2 APARTMENT ERV OUTLET NODE,Air,1
 Node,359,M N2 APARTMENT ERV SECONDARY OUTLET NODE,Air,1
 Node,360,M S1 APARTMENT ERV OUTLET NODE,Air,1
 Node,361,M S1 APARTMENT ERV SECONDARY OUTLET NODE,Air,1
 Node,362,M S2 APARTMENT ERV OUTLET NODE,Air,1
 Node,363,M S2 APARTMENT ERV SECONDARY OUTLET NODE,Air,1
 Node,364,T SW APARTMENT ERV OUTLET NODE,Air,1
 Node,365,T SW APARTMENT ERV SECONDARY OUTLET NODE,Air,1
 Node,366,T NW APARTMENT ERV OUTLET NODE,Air,1
 Node,367,T NW APARTMENT ERV SECONDARY OUTLET NODE,Air,1
 Node,368,T SE APARTMENT ERV OUTLET NODE,Air,1
 Node,369,T SE APARTMENT ERV SECONDARY OUTLET NODE,Air,1
 Node,370,T NE APARTMENT ERV OUTLET NODE,Air,1
 Node,371,T NE APARTMENT ERV SECONDARY OUTLET NODE,Air,1
 Node,372,T N1 APARTMENT ERV OUTLET NODE,Air,1
 Node,373,T N1 APARTMENT ERV SECONDARY OUTLET NODE,Air,1
 Node,374,T N2 APARTMENT ERV OUTLET NODE,Air,1
 Node,375,T N2 APARTMENT ERV SECONDARY OUTLET NODE,Air,1
 Node,376,T S1 APARTMENT ERV OUTLET NODE,Air,1
 Node,377,T S1 APARTMENT ERV SECONDARY OUTLET NODE,Air,1
 Node,378,T S2 APARTMENT ERV OUTLET NODE,Air,1
 Node,379,T S2 APARTMENT ERV SECONDARY OUTLET NODE,Air,1
 Node,380,G SW APARTMENT ERV EXH FAN OUTLET NODE,Air,1
 Node,381,G NW APARTMENT ERV EXH FAN OUTLET NODE,Air,1
 Node,382,G NE APARTMENT ERV EXH FAN OUTLET NODE,Air,1
 Node,383,G N1 APARTMENT ERV EXH FAN OUTLET NODE,Air,1
 Node,384,G N2 APARTMENT ERV EXH FAN OUTLET NODE,Air,1
 Node,385,G S1 APARTMENT ERV EXH FAN OUTLET NODE,Air,1
 Node,386,G S2 APARTMENT ERV EXH FAN OUTLET NODE,Air,1
 Node,387,M SW APARTMENT ERV EXH FAN OUTLET NODE,Air,1
 Node,388,M NW APARTMENT ERV EXH FAN OUTLET NODE,Air,1
 Node,389,M SE APARTMENT ERV EXH FAN OUTLET NODE,Air,1
 Node,390,M NE APARTMENT ERV EXH FAN OUTLET NODE,Air,1
 Node,391,M N1 APARTMENT ERV EXH FAN OUTLET NODE,Air,1
 Node,392,M N2 APARTMENT ERV EXH FAN OUTLET NODE,Air,1
 Node,393,M S1 APARTMENT ERV EXH FAN OUTLET NODE,Air,1
 Node,394,M S2 APARTMENT ERV EXH FAN OUTLET NODE,Air,1
 Node,395,T SW APARTMENT ERV EXH FAN OUTLET NODE,Air,1
 Node,396,T NW APARTMENT ERV EXH FAN OUTLET NODE,Air,1
 Node,397,T SE APARTMENT ERV EXH FAN OUTLET NODE,Air,1
 Node,398,T NE APARTMENT ERV EXH FAN OUTLET NODE,Air,1
 Node,399,T N1 APARTMENT ERV EXH FAN OUTLET NODE,Air,1
 Node,400,T N2 APARTMENT ERV EXH FAN OUTLET NODE,Air,1
 Node,401,T S1 APARTMENT ERV EXH FAN OUTLET NODE,Air,1
 Node,402,T S2 APARTMENT ERV EXH FAN OUTLET NODE,Air,1
 Node,403,SPLIT GSW OARELIEF NODE,Air,1
 Node,404,SPLIT GNW OARELIEF NODE,Air,1
 Node,405,SPLIT OFFICE OARELIEF NODE,Air,1
 Node,406,SPLIT GNE OARELIEF NODE,Air,1
 Node,407,SPLIT GN1 OARELIEF NODE,Air,1
 Node,408,SPLIT GN2 OARELIEF NODE,Air,1
 Node,409,SPLIT GS1 OARELIEF NODE,Air,1
 Node,410,SPLIT GS2 OARELIEF NODE,Air,1
 Node,411,SPLIT MSW OARELIEF NODE,Air,1
 Node,412,SPLIT MNW OARELIEF NODE,Air,1
 Node,413,SPLIT MSE OARELIEF NODE,Air,1
 Node,414,SPLIT MNE OARELIEF NODE,Air,1
 Node,415,SPLIT MN1 OARELIEF NODE,Air,1
 Node,416,SPLIT MN2 OARELIEF NODE,Air,1
 Node,417,SPLIT MS1 OARELIEF NODE,Air,1
 Node,418,SPLIT MS2 OARELIEF NODE,Air,1
 Node,419,SPLIT TSW OARELIEF NODE,Air,1
 Node,420,SPLIT TNW OARELIEF NODE,Air,1
 Node,421,SPLIT TSE OARELIEF NODE,Air,1
 Node,422,SPLIT TNE OARELIEF NODE,Air,1
 Node,423,SPLIT TN1 OARELIEF NODE,Air,1
 Node,424,SPLIT TN2 OARELIEF NODE,Air,1
 Node,425,SPLIT TS1 OARELIEF NODE,Air,1
 Node,426,SPLIT TS2 OARELIEF NODE,Air,1
 Node,427,SPLIT GSW COOLING COIL OUTLET,Air,1
 Node,428,SPLIT GNW COOLING COIL OUTLET,Air,1
 Node,429,SPLIT OFFICE COOLING COIL OUTLET,Air,1
 Node,430,SPLIT GNE COOLING COIL OUTLET,Air,1
 Node,431,SPLIT GN1 COOLING COIL OUTLET,Air,1
 Node,432,SPLIT GN2 COOLING COIL OUTLET,Air,1
 Node,433,SPLIT GS1 COOLING COIL OUTLET,Air,1
 Node,434,SPLIT GS2 COOLING COIL OUTLET,Air,1
 Node,435,SPLIT MSW COOLING COIL OUTLET,Air,1
 Node,436,SPLIT MNW COOLING COIL OUTLET,Air,1
 Node,437,SPLIT MSE COOLING COIL OUTLET,Air,1
 Node,438,SPLIT MNE COOLING COIL OUTLET,Air,1
 Node,439,SPLIT MN1 COOLING COIL OUTLET,Air,1
 Node,440,SPLIT MN2 COOLING COIL OUTLET,Air,1
 Node,441,SPLIT MS1 COOLING COIL OUTLET,Air,1
 Node,442,SPLIT MS2 COOLING COIL OUTLET,Air,1
 Node,443,SPLIT TSW COOLING COIL OUTLET,Air,1
 Node,444,SPLIT TNW COOLING COIL OUTLET,Air,1
 Node,445,SPLIT TSE COOLING COIL OUTLET,Air,1
 Node,446,SPLIT TNE COOLING COIL OUTLET,Air,1
 Node,447,SPLIT TN1 COOLING COIL OUTLET,Air,1
 Node,448,SPLIT TN2 COOLING COIL OUTLET,Air,1
 Node,449,SPLIT TS1 COOLING COIL OUTLET,Air,1
 Node,450,SPLIT TS2 COOLING COIL OUTLET,Air,1
! ===============================================================
! <#Branch Lists>,<Number of Branch Lists>
 #Branch Lists,24
! <Branch List>,<Branch List Count>,<Branch List Name>,<Loop Name>,<Loop Type>,<Number of Branches>
! <Branch>,<Branch Count>,<Branch Name>,<Loop Name>,<Loop Type>,<Branch Inlet Node Name>,<Branch Outlet Node Name>
 Branch List,1,SPLIT GSW AIR LOOP BRANCHES,SPLIT GSW,Air,1
   Branch,1,SPLIT GSW AIR LOOP MAIN BRANCH,SPLIT GSW,Air,SPLIT GSW SUPPLY EQUIPMENT INLET NODE,SPLIT GSW SUPPLY EQUIPMENT OUTLET NODE
 Branch List,2,SPLIT GNW AIR LOOP BRANCHES,SPLIT GNW,Air,1
   Branch,1,SPLIT GNW AIR LOOP MAIN BRANCH,SPLIT GNW,Air,SPLIT GNW SUPPLY EQUIPMENT INLET NODE,SPLIT GNW SUPPLY EQUIPMENT OUTLET NODE
 Branch List,3,SPLIT OFFICE AIR LOOP BRANCHES,SPLIT OFFICE,Air,1
   Branch,1,SPLIT OFFICE AIR LOOP MAIN BRANCH,SPLIT OFFICE,Air,SPLIT OFFICE SUPPLY EQUIPMENT INLET NODE,SPLIT OFFICE SUPPLY EQUIPMENT OUTLET NODE
 Branch List,4,SPLIT GNE AIR LOOP BRANCHES,SPLIT GNE,Air,1
   Branch,1,SPLIT GNE AIR LOOP MAIN BRANCH,SPLIT GNE,Air,SPLIT GNE SUPPLY EQUIPMENT INLET NODE,SPLIT GNE SUPPLY EQUIPMENT OUTLET NODE
 Branch List,5,SPLIT GN1 AIR LOOP BRANCHES,SPLIT GN1,Air,1
   Branch,1,SPLIT GN1 AIR LOOP MAIN BRANCH,SPLIT GN1,Air,SPLIT GN1 SUPPLY EQUIPMENT INLET NODE,SPLIT GN1 SUPPLY EQUIPMENT OUTLET NODE
 Branch List,6,SPLIT GN2 AIR LOOP BRANCHES,SPLIT GN2,Air,1
   Branch,1,SPLIT GN2 AIR LOOP MAIN BRANCH,SPLIT GN2,Air,SPLIT GN2 SUPPLY EQUIPMENT INLET NODE,SPLIT GN2 SUPPLY EQUIPMENT OUTLET NODE
 Branch List,7,SPLIT GS1 AIR LOOP BRANCHES,SPLIT GS1,Air,1
   Branch,1,SPLIT GS1 AIR LOOP MAIN BRANCH,SPLIT GS1,Air,SPLIT GS1 SUPPLY EQUIPMENT INLET NODE,SPLIT GS1 SUPPLY EQUIPMENT OUTLET NODE
 Branch List,8,SPLIT GS2 AIR LOOP BRANCHES,SPLIT GS2,Air,1
   Branch,1,SPLIT GS2 AIR LOOP MAIN BRANCH,SPLIT GS2,Air,SPLIT GS2 SUPPLY EQUIPMENT INLET NODE,SPLIT GS2 SUPPLY EQUIPMENT OUTLET NODE
 Branch List,9,SPLIT MSW AIR LOOP BRANCHES,SPLIT MSW,Air,1
   Branch,1,SPLIT MSW AIR LOOP MAIN BRANCH,SPLIT MSW,Air,SPLIT MSW SUPPLY EQUIPMENT INLET NODE,SPLIT MSW SUPPLY EQUIPMENT OUTLET NODE
 Branch List,10,SPLIT MNW AIR LOOP BRANCHES,SPLIT MNW,Air,1
   Branch,1,SPLIT MNW AIR LOOP MAIN BRANCH,SPLIT MNW,Air,SPLIT MNW SUPPLY EQUIPMENT INLET NODE,SPLIT MNW SUPPLY EQUIPMENT OUTLET NODE
 Branch List,11,SPLIT MSE AIR LOOP BRANCHES,SPLIT MSE,Air,1
   Branch,1,SPLIT MSE AIR LOOP MAIN BRANCH,SPLIT MSE,Air,SPLIT MSE SUPPLY EQUIPMENT INLET NODE,SPLIT MSE SUPPLY EQUIPMENT OUTLET NODE
 Branch List,12,SPLIT MNE AIR LOOP BRANCHES,SPLIT MNE,Air,1
   Branch,1,SPLIT MNE AIR LOOP MAIN BRANCH,SPLIT MNE,Air,SPLIT MNE SUPPLY EQUIPMENT INLET NODE,SPLIT MNE SUPPLY EQUIPMENT OUTLET NODE
 Branch List,13,SPLIT MN1 AIR LOOP BRANCHES,SPLIT MN1,Air,1
   Branch,1,SPLIT MN1 AIR LOOP MAIN BRANCH,SPLIT MN1,Air,SPLIT MN1 SUPPLY EQUIPMENT INLET NODE,SPLIT MN1 SUPPLY EQUIPMENT OUTLET NODE
 Branch List,14,SPLIT MN2 AIR LOOP BRANCHES,SPLIT MN2,Air,1
   Branch,1,SPLIT MN2 AIR LOOP MAIN BRANCH,SPLIT MN2,Air,SPLIT MN2 SUPPLY EQUIPMENT INLET NODE,SPLIT MN2 SUPPLY EQUIPMENT OUTLET NODE
 Branch List,15,SPLIT MS1 AIR LOOP BRANCHES,SPLIT MS1,Air,1
   Branch,1,SPLIT MS1 AIR LOOP MAIN BRANCH,SPLIT MS1,Air,SPLIT MS1 SUPPLY EQUIPMENT INLET NODE,SPLIT MS1 SUPPLY EQUIPMENT OUTLET NODE
 Branch List,16,SPLIT MS2 AIR LOOP BRANCHES,SPLIT MS2,Air,1
   Branch,1,SPLIT MS2 AIR LOOP MAIN BRANCH,SPLIT MS2,Air,SPLIT MS2 SUPPLY EQUIPMENT INLET NODE,SPLIT MS2 SUPPLY EQUIPMENT OUTLET NODE
 Branch List,17,SPLIT TSW AIR LOOP BRANCHES,SPLIT TSW,Air,1
   Branch,1,SPLIT TSW AIR LOOP MAIN BRANCH,SPLIT TSW,Air,SPLIT TSW SUPPLY EQUIPMENT INLET NODE,SPLIT TSW SUPPLY EQUIPMENT OUTLET NODE
 Branch List,18,SPLIT TNW AIR LOOP BRANCHES,SPLIT TNW,Air,1
   Branch,1,SPLIT TNW AIR LOOP MAIN BRANCH,SPLIT TNW,Air,SPLIT TNW SUPPLY EQUIPMENT INLET NODE,SPLIT TNW SUPPLY EQUIPMENT OUTLET NODE
 Branch List,19,SPLIT TSE AIR LOOP BRANCHES,SPLIT TSE,Air,1
   Branch,1,SPLIT TSE AIR LOOP MAIN BRANCH,SPLIT TSE,Air,SPLIT TSE SUPPLY EQUIPMENT INLET NODE,SPLIT TSE SUPPLY EQUIPMENT OUTLET NODE
 Branch List,20,SPLIT TNE AIR LOOP BRANCHES,SPLIT TNE,Air,1
   Branch,1,SPLIT TNE AIR LOOP MAIN BRANCH,SPLIT TNE,Air,SPLIT TNE SUPPLY EQUIPMENT INLET NODE,SPLIT TNE SUPPLY EQUIPMENT OUTLET NODE
 Branch List,21,SPLIT TN1 AIR LOOP BRANCHES,SPLIT TN1,Air,1
   Branch,1,SPLIT TN1 AIR LOOP MAIN BRANCH,SPLIT TN1,Air,SPLIT TN1 SUPPLY EQUIPMENT INLET NODE,SPLIT TN1 SUPPLY EQUIPMENT OUTLET NODE
 Branch List,22,SPLIT TN2 AIR LOOP BRANCHES,SPLIT TN2,Air,1
   Branch,1,SPLIT TN2 AIR LOOP MAIN BRANCH,SPLIT TN2,Air,SPLIT TN2 SUPPLY EQUIPMENT INLET NODE,SPLIT TN2 SUPPLY EQUIPMENT OUTLET NODE
 Branch List,23,SPLIT TS1 AIR LOOP BRANCHES,SPLIT TS1,Air,1
   Branch,1,SPLIT TS1 AIR LOOP MAIN BRANCH,SPLIT TS1,Air,SPLIT TS1 SUPPLY EQUIPMENT INLET NODE,SPLIT TS1 SUPPLY EQUIPMENT OUTLET NODE
 Branch List,24,SPLIT TS2 AIR LOOP BRANCHES,SPLIT TS2,Air,1
   Branch,1,SPLIT TS2 AIR LOOP MAIN BRANCH,SPLIT TS2,Air,SPLIT TS2 SUPPLY EQUIPMENT INLET NODE,SPLIT TS2 SUPPLY EQUIPMENT OUTLET NODE
! ===============================================================
! <#Supply Air Paths>,<Number of Supply Air Paths>
 #Supply Air Paths,24
! <Supply Air Path>,<Supply Air Path Count>,<Supply Air Path Name>,<AirLoopHVAC Name>
! <#Components on Supply Air Path>,<Number of Components>
! <Supply Air Path Component>,<Component Count>,<Component Type>,<Component Name>,<AirLoopHVAC Name>
! <#Outlet Nodes on Supply Air Path Component>,<Number of Nodes>
! <Supply Air Path Component Nodes>,<Node Count>,<Component Type>,<Component Name>,<Inlet Node Name>,<Outlet Node Name>,<AirLoopHVAC Name>
 Supply Air Path,1,SPLIT GSW,SPLIT GSW
   #Components on Supply Air Path,1
   Supply Air Path Component,1,AIRLOOPHVAC:ZONESPLITTER,SPLIT GSW SUPPLY AIR SPLITTER,SPLIT GSW
     #Outlet Nodes on Supply Air Path Component,1
     Supply Air Path Component Nodes,1,AIRLOOPHVAC:ZONESPLITTER,SPLIT GSW SUPPLY AIR SPLITTER,SPLIT GSW ZONE EQUIPMENT INLET NODE,G SW APARTMENT ADU INLET NODE,SPLIT GSW
! <#Nodes on Supply Air Path>,<Number of Nodes>
! <Supply Air Path Node>,<Node Type>,<Node Count>,<Node Name>,<AirLoopHVAC Name>
#Nodes on Supply Air Path,2
   Supply Air Path Node,Inlet Node,1,SPLIT GSW ZONE EQUIPMENT INLET NODE,SPLIT GSW
   Supply Air Path Node,Outlet Node,2,G SW APARTMENT ADU INLET NODE,SPLIT GSW
 Supply Air Path,2,SPLIT GNW,SPLIT GNW
   #Components on Supply Air Path,1
   Supply Air Path Component,1,AIRLOOPHVAC:ZONESPLITTER,SPLIT GNW SUPPLY AIR SPLITTER,SPLIT GNW
     #Outlet Nodes on Supply Air Path Component,1
     Supply Air Path Component Nodes,1,AIRLOOPHVAC:ZONESPLITTER,SPLIT GNW SUPPLY AIR SPLITTER,SPLIT GNW ZONE EQUIPMENT INLET NODE,G NW APARTMENT ADU INLET NODE,SPLIT GNW
! <#Nodes on Supply Air Path>,<Number of Nodes>
! <Supply Air Path Node>,<Node Type>,<Node Count>,<Node Name>,<AirLoopHVAC Name>
#Nodes on Supply Air Path,2
   Supply Air Path Node,Inlet Node,1,SPLIT GNW ZONE EQUIPMENT INLET NODE,SPLIT GNW
   Supply Air Path Node,Outlet Node,2,G NW APARTMENT ADU INLET NODE,SPLIT GNW
 Supply Air Path,3,SPLIT OFFICE,SPLIT OFFICE
   #Components on Supply Air Path,1
   Supply Air Path Component,1,AIRLOOPHVAC:ZONESPLITTER,SPLIT OFFICE SUPPLY AIR SPLITTER,SPLIT OFFICE
     #Outlet Nodes on Supply Air Path Component,1
     Supply Air Path Component Nodes,1,AIRLOOPHVAC:ZONESPLITTER,SPLIT OFFICE SUPPLY AIR SPLITTER,SPLIT OFFICE ZONE EQUIPMENT INLET NODE,OFFICE ADU INLET NODE,SPLIT OFFICE
! <#Nodes on Supply Air Path>,<Number of Nodes>
! <Supply Air Path Node>,<Node Type>,<Node Count>,<Node Name>,<AirLoopHVAC Name>
#Nodes on Supply Air Path,2
   Supply Air Path Node,Inlet Node,1,SPLIT OFFICE ZONE EQUIPMENT INLET NODE,SPLIT OFFICE
   Supply Air Path Node,Outlet Node,2,OFFICE ADU INLET NODE,SPLIT OFFICE
 Supply Air Path,4,SPLIT GNE,SPLIT GNE
   #Components on Supply Air Path,1
   Supply Air Path Component,1,AIRLOOPHVAC:ZONESPLITTER,SPLIT GNE SUPPLY AIR SPLITTER,SPLIT GNE
     #Outlet Nodes on Supply Air Path Component,1
     Supply Air Path Component Nodes,1,AIRLOOPHVAC:ZONESPLITTER,SPLIT GNE SUPPLY AIR SPLITTER,SPLIT GNE ZONE EQUIPMENT INLET NODE,G NE APARTMENT ADU INLET NODE,SPLIT GNE
! <#Nodes on Supply Air Path>,<Number of Nodes>
! <Supply Air Path Node>,<Node Type>,<Node Count>,<Node Name>,<AirLoopHVAC Name>
#Nodes on Supply Air Path,2
   Supply Air Path Node,Inlet Node,1,SPLIT GNE ZONE EQUIPMENT INLET NODE,SPLIT GNE
   Supply Air Path Node,Outlet Node,2,G NE APARTMENT ADU INLET NODE,SPLIT GNE
 Supply Air Path,5,SPLIT GN1,SPLIT GN1
   #Components on Supply Air Path,1
   Supply Air Path Component,1,AIRLOOPHVAC:ZONESPLITTER,SPLIT GN1 SUPPLY AIR SPLITTER,SPLIT GN1
     #Outlet Nodes on Supply Air Path Component,1
     Supply Air Path Component Nodes,1,AIRLOOPHVAC:ZONESPLITTER,SPLIT GN1 SUPPLY AIR SPLITTER,SPLIT GN1 ZONE EQUIPMENT INLET NODE,G N1 APARTMENT ADU INLET NODE,SPLIT GN1
! <#Nodes on Supply Air Path>,<Number of Nodes>
! <Supply Air Path Node>,<Node Type>,<Node Count>,<Node Name>,<AirLoopHVAC Name>
#Nodes on Supply Air Path,2
   Supply Air Path Node,Inlet Node,1,SPLIT GN1 ZONE EQUIPMENT INLET NODE,SPLIT GN1
   Supply Air Path Node,Outlet Node,2,G N1 APARTMENT ADU INLET NODE,SPLIT GN1
 Supply Air Path,6,SPLIT GN2,SPLIT GN2
   #Components on Supply Air Path,1
   Supply Air Path Component,1,AIRLOOPHVAC:ZONESPLITTER,SPLIT GN2 SUPPLY AIR SPLITTER,SPLIT GN2
     #Outlet Nodes on Supply Air Path Component,1
     Supply Air Path Component Nodes,1,AIRLOOPHVAC:ZONESPLITTER,SPLIT GN2 SUPPLY AIR SPLITTER,SPLIT GN2 ZONE EQUIPMENT INLET NODE,G N2 APARTMENT ADU INLET NODE,SPLIT GN2
! <#Nodes on Supply Air Path>,<Number of Nodes>
! <Supply Air Path Node>,<Node Type>,<Node Count>,<Node Name>,<AirLoopHVAC Name>
#Nodes on Supply Air Path,2
   Supply Air Path Node,Inlet Node,1,SPLIT GN2 ZONE EQUIPMENT INLET NODE,SPLIT GN2
   Supply Air Path Node,Outlet Node,2,G N2 APARTMENT ADU INLET NODE,SPLIT GN2
 Supply Air Path,7,SPLIT GS1,SPLIT GS1
   #Components on Supply Air Path,1
   Supply Air Path Component,1,AIRLOOPHVAC:ZONESPLITTER,SPLIT GS1 SUPPLY AIR SPLITTER,SPLIT GS1
     #Outlet Nodes on Supply Air Path Component,1
     Supply Air Path Component Nodes,1,AIRLOOPHVAC:ZONESPLITTER,SPLIT GS1 SUPPLY AIR SPLITTER,SPLIT GS1 ZONE EQUIPMENT INLET NODE,G S1 APARTMENT ADU INLET NODE,SPLIT GS1
! <#Nodes on Supply Air Path>,<Number of Nodes>
! <Supply Air Path Node>,<Node Type>,<Node Count>,<Node Name>,<AirLoopHVAC Name>
#Nodes on Supply Air Path,2
   Supply Air Path Node,Inlet Node,1,SPLIT GS1 ZONE EQUIPMENT INLET NODE,SPLIT GS1
   Supply Air Path Node,Outlet Node,2,G S1 APARTMENT ADU INLET NODE,SPLIT GS1
 Supply Air Path,8,SPLIT GS2,SPLIT GS2
   #Components on Supply Air Path,1
   Supply Air Path Component,1,AIRLOOPHVAC:ZONESPLITTER,SPLIT GS2 SUPPLY AIR SPLITTER,SPLIT GS2
     #Outlet Nodes on Supply Air Path Component,1
     Supply Air Path Component Nodes,1,AIRLOOPHVAC:ZONESPLITTER,SPLIT GS2 SUPPLY AIR SPLITTER,SPLIT GS2 ZONE EQUIPMENT INLET NODE,G S2 APARTMENT ADU INLET NODE,SPLIT GS2
! <#Nodes on Supply Air Path>,<Number of Nodes>
! <Supply Air Path Node>,<Node Type>,<Node Count>,<Node Name>,<AirLoopHVAC Name>
#Nodes on Supply Air Path,2
   Supply Air Path Node,Inlet Node,1,SPLIT GS2 ZONE EQUIPMENT INLET NODE,SPLIT GS2
   Supply Air Path Node,Outlet Node,2,G S2 APARTMENT ADU INLET NODE,SPLIT GS2
 Supply Air Path,9,SPLIT MSW,SPLIT MSW
   #Components on Supply Air Path,1
   Supply Air Path Component,1,AIRLOOPHVAC:ZONESPLITTER,SPLIT MSW SUPPLY AIR SPLITTER,SPLIT MSW
     #Outlet Nodes on Supply Air Path Component,1
     Supply Air Path Component Nodes,1,AIRLOOPHVAC:ZONESPLITTER,SPLIT MSW SUPPLY AIR SPLITTER,SPLIT MSW ZONE EQUIPMENT INLET NODE,M SW APARTMENT ADU INLET NODE,SPLIT MSW
! <#Nodes on Supply Air Path>,<Number of Nodes>
! <Supply Air Path Node>,<Node Type>,<Node Count>,<Node Name>,<AirLoopHVAC Name>
#Nodes on Supply Air Path,2
   Supply Air Path Node,Inlet Node,1,SPLIT MSW ZONE EQUIPMENT INLET NODE,SPLIT MSW
   Supply Air Path Node,Outlet Node,2,M SW APARTMENT ADU INLET NODE,SPLIT MSW
 Supply Air Path,10,SPLIT MNW,SPLIT MNW
   #Components on Supply Air Path,1
   Supply Air Path Component,1,AIRLOOPHVAC:ZONESPLITTER,SPLIT MNW SUPPLY AIR SPLITTER,SPLIT MNW
     #Outlet Nodes on Supply Air Path Component,1
     Supply Air Path Component Nodes,1,AIRLOOPHVAC:ZONESPLITTER,SPLIT MNW SUPPLY AIR SPLITTER,SPLIT MNW ZONE EQUIPMENT INLET NODE,M NW APARTMENT ADU INLET NODE,SPLIT MNW
! <#Nodes on Supply Air Path>,<Number of Nodes>
! <Supply Air Path Node>,<Node Type>,<Node Count>,<Node Name>,<AirLoopHVAC Name>
#Nodes on Supply Air Path,2
   Supply Air Path Node,Inlet Node,1,SPLIT MNW ZONE EQUIPMENT INLET NODE,SPLIT MNW
   Supply Air Path Node,Outlet Node,2,M NW APARTMENT ADU INLET NODE,SPLIT MNW
 Supply Air Path,11,SPLIT MSE,SPLIT MSE
   #Components on Supply Air Path,1
   Supply Air Path Component,1,AIRLOOPHVAC:ZONESPLITTER,SPLIT MSE SUPPLY AIR SPLITTER,SPLIT MSE
     #Outlet Nodes on Supply Air Path Component,1
     Supply Air Path Component Nodes,1,AIRLOOPHVAC:ZONESPLITTER,SPLIT MSE SUPPLY AIR SPLITTER,SPLIT MSE ZONE EQUIPMENT INLET NODE,M SE APARTMENT ADU INLET NODE,SPLIT MSE
! <#Nodes on Supply Air Path>,<Number of Nodes>
! <Supply Air Path Node>,<Node Type>,<Node Count>,<Node Name>,<AirLoopHVAC Name>
#Nodes on Supply Air Path,2
   Supply Air Path Node,Inlet Node,1,SPLIT MSE ZONE EQUIPMENT INLET NODE,SPLIT MSE
   Supply Air Path Node,Outlet Node,2,M SE APARTMENT ADU INLET NODE,SPLIT MSE
 Supply Air Path,12,SPLIT MNE,SPLIT MNE
   #Components on Supply Air Path,1
   Supply Air Path Component,1,AIRLOOPHVAC:ZONESPLITTER,SPLIT MNE SUPPLY AIR SPLITTER,SPLIT MNE
     #Outlet Nodes on Supply Air Path Component,1
     Supply Air Path Component Nodes,1,AIRLOOPHVAC:ZONESPLITTER,SPLIT MNE SUPPLY AIR SPLITTER,SPLIT MNE ZONE EQUIPMENT INLET NODE,M NE APARTMENT ADU INLET NODE,SPLIT MNE
! <#Nodes on Supply Air Path>,<Number of Nodes>
! <Supply Air Path Node>,<Node Type>,<Node Count>,<Node Name>,<AirLoopHVAC Name>
#Nodes on Supply Air Path,2
   Supply Air Path Node,Inlet Node,1,SPLIT MNE ZONE EQUIPMENT INLET NODE,SPLIT MNE
   Supply Air Path Node,Outlet Node,2,M NE APARTMENT ADU INLET NODE,SPLIT MNE
 Supply Air Path,13,SPLIT MN1,SPLIT MN1
   #Components on Supply Air Path,1
   Supply Air Path Component,1,AIRLOOPHVAC:ZONESPLITTER,SPLIT MN1 SUPPLY AIR SPLITTER,SPLIT MN1
     #Outlet Nodes on Supply Air Path Component,1
     Supply Air Path Component Nodes,1,AIRLOOPHVAC:ZONESPLITTER,SPLIT MN1 SUPPLY AIR SPLITTER,SPLIT MN1 ZONE EQUIPMENT INLET NODE,M N1 APARTMENT ADU INLET NODE,SPLIT MN1
! <#Nodes on Supply Air Path>,<Number of Nodes>
! <Supply Air Path Node>,<Node Type>,<Node Count>,<Node Name>,<AirLoopHVAC Name>
#Nodes on Supply Air Path,2
   Supply Air Path Node,Inlet Node,1,SPLIT MN1 ZONE EQUIPMENT INLET NODE,SPLIT MN1
   Supply Air Path Node,Outlet Node,2,M N1 APARTMENT ADU INLET NODE,SPLIT MN1
 Supply Air Path,14,SPLIT MN2,SPLIT MN2
   #Components on Supply Air Path,1
   Supply Air Path Component,1,AIRLOOPHVAC:ZONESPLITTER,SPLIT MN2 SUPPLY AIR SPLITTER,SPLIT MN2
     #Outlet Nodes on Supply Air Path Component,1
     Supply Air Path Component Nodes,1,AIRLOOPHVAC:ZONESPLITTER,SPLIT MN2 SUPPLY AIR SPLITTER,SPLIT MN2 ZONE EQUIPMENT INLET NODE,M N2 APARTMENT ADU INLET NODE,SPLIT MN2
! <#Nodes on Supply Air Path>,<Number of Nodes>
! <Supply Air Path Node>,<Node Type>,<Node Count>,<Node Name>,<AirLoopHVAC Name>
#Nodes on Supply Air Path,2
   Supply Air Path Node,Inlet Node,1,SPLIT MN2 ZONE EQUIPMENT INLET NODE,SPLIT MN2
   Supply Air Path Node,Outlet Node,2,M N2 APARTMENT ADU INLET NODE,SPLIT MN2
 Supply Air Path,15,SPLIT MS1,SPLIT MS1
   #Components on Supply Air Path,1
   Supply Air Path Component,1,AIRLOOPHVAC:ZONESPLITTER,SPLIT MS1 SUPPLY AIR SPLITTER,SPLIT MS1
     #Outlet Nodes on Supply Air Path Component,1
     Supply Air Path Component Nodes,1,AIRLOOPHVAC:ZONESPLITTER,SPLIT MS1 SUPPLY AIR SPLITTER,SPLIT MS1 ZONE EQUIPMENT INLET NODE,M S1 APARTMENT ADU INLET NODE,SPLIT MS1
! <#Nodes on Supply Air Path>,<Number of Nodes>
! <Supply Air Path Node>,<Node Type>,<Node Count>,<Node Name>,<AirLoopHVAC Name>
#Nodes on Supply Air Path,2
   Supply Air Path Node,Inlet Node,1,SPLIT MS1 ZONE EQUIPMENT INLET NODE,SPLIT MS1
   Supply Air Path Node,Outlet Node,2,M S1 APARTMENT ADU INLET NODE,SPLIT MS1
 Supply Air Path,16,SPLIT MS2,SPLIT MS2
   #Components on Supply Air Path,1
   Supply Air Path Component,1,AIRLOOPHVAC:ZONESPLITTER,SPLIT MS2 SUPPLY AIR SPLITTER,SPLIT MS2
     #Outlet Nodes on Supply Air Path Component,1
     Supply Air Path Component Nodes,1,AIRLOOPHVAC:ZONESPLITTER,SPLIT MS2 SUPPLY AIR SPLITTER,SPLIT MS2 ZONE EQUIPMENT INLET NODE,M S2 APARTMENT ADU INLET NODE,SPLIT MS2
! <#Nodes on Supply Air Path>,<Number of Nodes>
! <Supply Air Path Node>,<Node Type>,<Node Count>,<Node Name>,<AirLoopHVAC Name>
#Nodes on Supply Air Path,2
   Supply Air Path Node,Inlet Node,1,SPLIT MS2 ZONE EQUIPMENT INLET NODE,SPLIT MS2
   Supply Air Path Node,Outlet Node,2,M S2 APARTMENT ADU INLET NODE,SPLIT MS2
 Supply Air Path,17,SPLIT TSW,SPLIT TSW
   #Components on Supply Air Path,1
   Supply Air Path Component,1,AIRLOOPHVAC:ZONESPLITTER,SPLIT TSW SUPPLY AIR SPLITTER,SPLIT TSW
     #Outlet Nodes on Supply Air Path Component,1
     Supply Air Path Component Nodes,1,AIRLOOPHVAC:ZONESPLITTER,SPLIT TSW SUPPLY AIR SPLITTER,SPLIT TSW ZONE EQUIPMENT INLET NODE,T SW APARTMENT ADU INLET NODE,SPLIT TSW
! <#Nodes on Supply Air Path>,<Number of Nodes>
! <Supply Air Path Node>,<Node Type>,<Node Count>,<Node Name>,<AirLoopHVAC Name>
#Nodes on Supply Air Path,2
   Supply Air Path Node,Inlet Node,1,SPLIT TSW ZONE EQUIPMENT INLET NODE,SPLIT TSW
   Supply Air Path Node,Outlet Node,2,T SW APARTMENT ADU INLET NODE,SPLIT TSW
 Supply Air Path,18,SPLIT TNW,SPLIT TNW
   #Components on Supply Air Path,1
   Supply Air Path Component,1,AIRLOOPHVAC:ZONESPLITTER,SPLIT TNW SUPPLY AIR SPLITTER,SPLIT TNW
     #Outlet Nodes on Supply Air Path Component,1
     Supply Air Path Component Nodes,1,AIRLOOPHVAC:ZONESPLITTER,SPLIT TNW SUPPLY AIR SPLITTER,SPLIT TNW ZONE EQUIPMENT INLET NODE,T NW APARTMENT ADU INLET NODE,SPLIT TNW
! <#Nodes on Supply Air Path>,<Number of Nodes>
! <Supply Air Path Node>,<Node Type>,<Node Count>,<Node Name>,<AirLoopHVAC Name>
#Nodes on Supply Air Path,2
   Supply Air Path Node,Inlet Node,1,SPLIT TNW ZONE EQUIPMENT INLET NODE,SPLIT TNW
   Supply Air Path Node,Outlet Node,2,T NW APARTMENT ADU INLET NODE,SPLIT TNW
 Supply Air Path,19,SPLIT TSE,SPLIT TSE
   #Components on Supply Air Path,1
   Supply Air Path Component,1,AIRLOOPHVAC:ZONESPLITTER,SPLIT TSE SUPPLY AIR SPLITTER,SPLIT TSE
     #Outlet Nodes on Supply Air Path Component,1
     Supply Air Path Component Nodes,1,AIRLOOPHVAC:ZONESPLITTER,SPLIT TSE SUPPLY AIR SPLITTER,SPLIT TSE ZONE EQUIPMENT INLET NODE,T SE APARTMENT ADU INLET NODE,SPLIT TSE
! <#Nodes on Supply Air Path>,<Number of Nodes>
! <Supply Air Path Node>,<Node Type>,<Node Count>,<Node Name>,<AirLoopHVAC Name>
#Nodes on Supply Air Path,2
   Supply Air Path Node,Inlet Node,1,SPLIT TSE ZONE EQUIPMENT INLET NODE,SPLIT TSE
   Supply Air Path Node,Outlet Node,2,T SE APARTMENT ADU INLET NODE,SPLIT TSE
 Supply Air Path,20,SPLIT TNE,SPLIT TNE
   #Components on Supply Air Path,1
   Supply Air Path Component,1,AIRLOOPHVAC:ZONESPLITTER,SPLIT TNE SUPPLY AIR SPLITTER,SPLIT TNE
     #Outlet Nodes on Supply Air Path Component,1
     Supply Air Path Component Nodes,1,AIRLOOPHVAC:ZONESPLITTER,SPLIT TNE SUPPLY AIR SPLITTER,SPLIT TNE ZONE EQUIPMENT INLET NODE,T NE APARTMENT ADU INLET NODE,SPLIT TNE
! <#Nodes on Supply Air Path>,<Number of Nodes>
! <Supply Air Path Node>,<Node Type>,<Node Count>,<Node Name>,<AirLoopHVAC Name>
#Nodes on Supply Air Path,2
   Supply Air Path Node,Inlet Node,1,SPLIT TNE ZONE EQUIPMENT INLET NODE,SPLIT TNE
   Supply Air Path Node,Outlet Node,2,T NE APARTMENT ADU INLET NODE,SPLIT TNE
 Supply Air Path,21,SPLIT TN1,SPLIT TN1
   #Components on Supply Air Path,1
   Supply Air Path Component,1,AIRLOOPHVAC:ZONESPLITTER,SPLIT TN1 SUPPLY AIR SPLITTER,SPLIT TN1
     #Outlet Nodes on Supply Air Path Component,1
     Supply Air Path Component Nodes,1,AIRLOOPHVAC:ZONESPLITTER,SPLIT TN1 SUPPLY AIR SPLITTER,SPLIT TN1 ZONE EQUIPMENT INLET NODE,T N1 APARTMENT ADU INLET NODE,SPLIT TN1
! <#Nodes on Supply Air Path>,<Number of Nodes>
! <Supply Air Path Node>,<Node Type>,<Node Count>,<Node Name>,<AirLoopHVAC Name>
#Nodes on Supply Air Path,2
   Supply Air Path Node,Inlet Node,1,SPLIT TN1 ZONE EQUIPMENT INLET NODE,SPLIT TN1
   Supply Air Path Node,Outlet Node,2,T N1 APARTMENT ADU INLET NODE,SPLIT TN1
 Supply Air Path,22,SPLIT TN2,SPLIT TN2
   #Components on Supply Air Path,1
   Supply Air Path Component,1,AIRLOOPHVAC:ZONESPLITTER,SPLIT TN2 SUPPLY AIR SPLITTER,SPLIT TN2
     #Outlet Nodes on Supply Air Path Component,1
     Supply Air Path Component Nodes,1,AIRLOOPHVAC:ZONESPLITTER,SPLIT TN2 SUPPLY AIR SPLITTER,SPLIT TN2 ZONE EQUIPMENT INLET NODE,T N2 APARTMENT ADU INLET NODE,SPLIT TN2
! <#Nodes on Supply Air Path>,<Number of Nodes>
! <Supply Air Path Node>,<Node Type>,<Node Count>,<Node Name>,<AirLoopHVAC Name>
#Nodes on Supply Air Path,2
   Supply Air Path Node,Inlet Node,1,SPLIT TN2 ZONE EQUIPMENT INLET NODE,SPLIT TN2
   Supply Air Path Node,Outlet Node,2,T N2 APARTMENT ADU INLET NODE,SPLIT TN2
 Supply Air Path,23,SPLIT TS1,SPLIT TS1
   #Components on Supply Air Path,1
   Supply Air Path Component,1,AIRLOOPHVAC:ZONESPLITTER,SPLIT TS1 SUPPLY AIR SPLITTER,SPLIT TS1
     #Outlet Nodes on Supply Air Path Component,1
     Supply Air Path Component Nodes,1,AIRLOOPHVAC:ZONESPLITTER,SPLIT TS1 SUPPLY AIR SPLITTER,SPLIT TS1 ZONE EQUIPMENT INLET NODE,T S1 APARTMENT ADU INLET NODE,SPLIT TS1
! <#Nodes on Supply Air Path>,<Number of Nodes>
! <Supply Air Path Node>,<Node Type>,<Node Count>,<Node Name>,<AirLoopHVAC Name>
#Nodes on Supply Air Path,2
   Supply Air Path Node,Inlet Node,1,SPLIT TS1 ZONE EQUIPMENT INLET NODE,SPLIT TS1
   Supply Air Path Node,Outlet Node,2,T S1 APARTMENT ADU INLET NODE,SPLIT TS1
 Supply Air Path,24,SPLIT TS2,SPLIT TS2
   #Components on Supply Air Path,1
   Supply Air Path Component,1,AIRLOOPHVAC:ZONESPLITTER,SPLIT TS2 SUPPLY AIR SPLITTER,SPLIT TS2
     #Outlet Nodes on Supply Air Path Component,1
     Supply Air Path Component Nodes,1,AIRLOOPHVAC:ZONESPLITTER,SPLIT TS2 SUPPLY AIR SPLITTER,SPLIT TS2 ZONE EQUIPMENT INLET NODE,T S2 APARTMENT ADU INLET NODE,SPLIT TS2
! <#Nodes on Supply Air Path>,<Number of Nodes>
! <Supply Air Path Node>,<Node Type>,<Node Count>,<Node Name>,<AirLoopHVAC Name>
#Nodes on Supply Air Path,2
   Supply Air Path Node,Inlet Node,1,SPLIT TS2 ZONE EQUIPMENT INLET NODE,SPLIT TS2
   Supply Air Path Node,Outlet Node,2,T S2 APARTMENT ADU INLET NODE,SPLIT TS2
! ===============================================================
! <#Return Air Paths>,<Number of Return Air Paths>
 #Return Air Paths,24
! <Return Air Path>,<Return Air Path Count>,<Return Air Path Name>,<AirLoopHVAC Name>
! <#Components on Return Air Path>,<Number of Components>
! <Return Air Path Component>,<Component Count>,<Component Type>,<Component Name>,<AirLoopHVAC Name>
! <#Inlet Nodes on Return Air Path Component>,<Number of Nodes>
! <Return Air Path Component Nodes>,<Node Count>,<Component Type>,<Component Name>,<Inlet Node Name>,<Outlet Node Name>,<AirLoopHVAC Name>
 Return Air Path,1,SPLIT GSW RETURN AIR PATH,SPLIT GSW
   #Components on Return Air Path,1
   Return Air Path Component,1,AIRLOOPHVAC:ZONEMIXER,SPLIT GSW RETURN AIR MIXER,SPLIT GSW
     #Inlet Nodes on Return Air Path Component,1
     Return Air Path Component Nodes,1,AIRLOOPHVAC:ZONEMIXER,SPLIT GSW RETURN AIR MIXER,G SW APARTMENT RETURN AIR NODE,SPLIT GSW ZONE EQUIPMENT OUTLET NODE,SPLIT GSW
! <#Nodes on Return Air Path>,<Number of Nodes>
! <Return Air Path Node>,<Node Type>,<Node Count>,<Node Name>,<AirLoopHVAC Name>
   #Nodes on Return Air Path,2
   Return Air Path Node,Outlet Node,1,SPLIT GSW ZONE EQUIPMENT OUTLET NODE,SPLIT GSW
   Return Air Path Node,Inlet Node,2,G SW APARTMENT RETURN AIR NODE,SPLIT GSW
 Return Air Path,2,SPLIT GNW RETURN AIR PATH,SPLIT GNW
   #Components on Return Air Path,1
   Return Air Path Component,1,AIRLOOPHVAC:ZONEMIXER,SPLIT GNW RETURN AIR MIXER,SPLIT GNW
     #Inlet Nodes on Return Air Path Component,1
     Return Air Path Component Nodes,1,AIRLOOPHVAC:ZONEMIXER,SPLIT GNW RETURN AIR MIXER,G NW APARTMENT RETURN AIR NODE,SPLIT GNW ZONE EQUIPMENT OUTLET NODE,SPLIT GNW
! <#Nodes on Return Air Path>,<Number of Nodes>
! <Return Air Path Node>,<Node Type>,<Node Count>,<Node Name>,<AirLoopHVAC Name>
   #Nodes on Return Air Path,2
   Return Air Path Node,Outlet Node,1,SPLIT GNW ZONE EQUIPMENT OUTLET NODE,SPLIT GNW
   Return Air Path Node,Inlet Node,2,G NW APARTMENT RETURN AIR NODE,SPLIT GNW
 Return Air Path,3,SPLIT OFFICE RETURN AIR PATH,SPLIT OFFICE
   #Components on Return Air Path,1
   Return Air Path Component,1,AIRLOOPHVAC:ZONEMIXER,SPLIT OFFICE RETURN AIR MIXER,SPLIT OFFICE
     #Inlet Nodes on Return Air Path Component,1
     Return Air Path Component Nodes,1,AIRLOOPHVAC:ZONEMIXER,SPLIT OFFICE RETURN AIR MIXER,OFFICE RETURN AIR NODE,SPLIT OFFICE ZONE EQUIPMENT OUTLET NODE,SPLIT OFFICE
! <#Nodes on Return Air Path>,<Number of Nodes>
! <Return Air Path Node>,<Node Type>,<Node Count>,<Node Name>,<AirLoopHVAC Name>
   #Nodes on Return Air Path,2
   Return Air Path Node,Outlet Node,1,SPLIT OFFICE ZONE EQUIPMENT OUTLET NODE,SPLIT OFFICE
   Return Air Path Node,Inlet Node,2,OFFICE RETURN AIR NODE,SPLIT OFFICE
 Return Air Path,4,SPLIT GNE RETURN AIR PATH,SPLIT GNE
   #Components on Return Air Path,1
   Return Air Path Component,1,AIRLOOPHVAC:ZONEMIXER,SPLIT GNE RETURN AIR MIXER,SPLIT GNE
     #Inlet Nodes on Return Air Path Component,1
     Return Air Path Component Nodes,1,AIRLOOPHVAC:ZONEMIXER,SPLIT GNE RETURN AIR MIXER,G NE APARTMENT RETURN AIR NODE,SPLIT GNE ZONE EQUIPMENT OUTLET NODE,SPLIT GNE
! <#Nodes on Return Air Path>,<Number of Nodes>
! <Return Air Path Node>,<Node Type>,<Node Count>,<Node Name>,<AirLoopHVAC Name>
   #Nodes on Return Air Path,2
   Return Air Path Node,Outlet Node,1,SPLIT GNE ZONE EQUIPMENT OUTLET NODE,SPLIT GNE
   Return Air Path Node,Inlet Node,2,G NE APARTMENT RETURN AIR NODE,SPLIT GNE
 Return Air Path,5,SPLIT GN1 RETURN AIR PATH,SPLIT GN1
   #Components on Return Air Path,1
   Return Air Path Component,1,AIRLOOPHVAC:ZONEMIXER,SPLIT GN1 RETURN AIR MIXER,SPLIT GN1
     #Inlet Nodes on Return Air Path Component,1
     Return Air Path Component Nodes,1,AIRLOOPHVAC:ZONEMIXER,SPLIT GN1 RETURN AIR MIXER,G N1 APARTMENT RETURN AIR NODE,SPLIT GN1 ZONE EQUIPMENT OUTLET NODE,SPLIT GN1
! <#Nodes on Return Air Path>,<Number of Nodes>
! <Return Air Path Node>,<Node Type>,<Node Count>,<Node Name>,<AirLoopHVAC Name>
   #Nodes on Return Air Path,2
   Return Air Path Node,Outlet Node,1,SPLIT GN1 ZONE EQUIPMENT OUTLET NODE,SPLIT GN1
   Return Air Path Node,Inlet Node,2,G N1 APARTMENT RETURN AIR NODE,SPLIT GN1
 Return Air Path,6,SPLIT GN2 RETURN AIR PATH,SPLIT GN2
   #Components on Return Air Path,1
   Return Air Path Component,1,AIRLOOPHVAC:ZONEMIXER,SPLIT GN2 RETURN AIR MIXER,SPLIT GN2
     #Inlet Nodes on Return Air Path Component,1
     Return Air Path Component Nodes,1,AIRLOOPHVAC:ZONEMIXER,SPLIT GN2 RETURN AIR MIXER,G N2 APARTMENT RETURN AIR NODE,SPLIT GN2 ZONE EQUIPMENT OUTLET NODE,SPLIT GN2
! <#Nodes on Return Air Path>,<Number of Nodes>
! <Return Air Path Node>,<Node Type>,<Node Count>,<Node Name>,<AirLoopHVAC Name>
   #Nodes on Return Air Path,2
   Return Air Path Node,Outlet Node,1,SPLIT GN2 ZONE EQUIPMENT OUTLET NODE,SPLIT GN2
   Return Air Path Node,Inlet Node,2,G N2 APARTMENT RETURN AIR NODE,SPLIT GN2
 Return Air Path,7,SPLIT GS1 RETURN AIR PATH,SPLIT GS1
   #Components on Return Air Path,1
   Return Air Path Component,1,AIRLOOPHVAC:ZONEMIXER,SPLIT GS1 RETURN AIR MIXER,SPLIT GS1
     #Inlet Nodes on Return Air Path Component,1
     Return Air Path Component Nodes,1,AIRLOOPHVAC:ZONEMIXER,SPLIT GS1 RETURN AIR MIXER,G S1 APARTMENT RETURN AIR NODE,SPLIT GS1 ZONE EQUIPMENT OUTLET NODE,SPLIT GS1
! <#Nodes on Return Air Path>,<Number of Nodes>
! <Return Air Path Node>,<Node Type>,<Node Count>,<Node Name>,<AirLoopHVAC Name>
   #Nodes on Return Air Path,2
   Return Air Path Node,Outlet Node,1,SPLIT GS1 ZONE EQUIPMENT OUTLET NODE,SPLIT GS1
   Return Air Path Node,Inlet Node,2,G S1 APARTMENT RETURN AIR NODE,SPLIT GS1
 Return Air Path,8,SPLIT GS2 RETURN AIR PATH,SPLIT GS2
   #Components on Return Air Path,1
   Return Air Path Component,1,AIRLOOPHVAC:ZONEMIXER,SPLIT GS2 RETURN AIR MIXER,SPLIT GS2
     #Inlet Nodes on Return Air Path Component,1
     Return Air Path Component Nodes,1,AIRLOOPHVAC:ZONEMIXER,SPLIT GS2 RETURN AIR MIXER,G S2 APARTMENT RETURN AIR NODE,SPLIT GS2 ZONE EQUIPMENT OUTLET NODE,SPLIT GS2
! <#Nodes on Return Air Path>,<Number of Nodes>
! <Return Air Path Node>,<Node Type>,<Node Count>,<Node Name>,<AirLoopHVAC Name>
   #Nodes on Return Air Path,2
   Return Air Path Node,Outlet Node,1,SPLIT GS2 ZONE EQUIPMENT OUTLET NODE,SPLIT GS2
   Return Air Path Node,Inlet Node,2,G S2 APARTMENT RETURN AIR NODE,SPLIT GS2
 Return Air Path,9,SPLIT MSW RETURN AIR PATH,SPLIT MSW
   #Components on Return Air Path,1
   Return Air Path Component,1,AIRLOOPHVAC:ZONEMIXER,SPLIT MSW RETURN AIR MIXER,SPLIT MSW
     #Inlet Nodes on Return Air Path Component,1
     Return Air Path Component Nodes,1,AIRLOOPHVAC:ZONEMIXER,SPLIT MSW RETURN AIR MIXER,M SW APARTMENT RETURN AIR NODE,SPLIT MSW ZONE EQUIPMENT OUTLET NODE,SPLIT MSW
! <#Nodes on Return Air Path>,<Number of Nodes>
! <Return Air Path Node>,<Node Type>,<Node Count>,<Node Name>,<AirLoopHVAC Name>
   #Nodes on Return Air Path,2
   Return Air Path Node,Outlet Node,1,SPLIT MSW ZONE EQUIPMENT OUTLET NODE,SPLIT MSW
   Return Air Path Node,Inlet Node,2,M SW APARTMENT RETURN AIR NODE,SPLIT MSW
 Return Air Path,10,SPLIT MNW RETURN AIR PATH,SPLIT MNW
   #Components on Return Air Path,1
   Return Air Path Component,1,AIRLOOPHVAC:ZONEMIXER,SPLIT MNW RETURN AIR MIXER,SPLIT MNW
     #Inlet Nodes on Return Air Path Component,1
     Return Air Path Component Nodes,1,AIRLOOPHVAC:ZONEMIXER,SPLIT MNW RETURN AIR MIXER,M NW APARTMENT RETURN AIR NODE,SPLIT MNW ZONE EQUIPMENT OUTLET NODE,SPLIT MNW
! <#Nodes on Return Air Path>,<Number of Nodes>
! <Return Air Path Node>,<Node Type>,<Node Count>,<Node Name>,<AirLoopHVAC Name>
   #Nodes on Return Air Path,2
   Return Air Path Node,Outlet Node,1,SPLIT MNW ZONE EQUIPMENT OUTLET NODE,SPLIT MNW
   Return Air Path Node,Inlet Node,2,M NW APARTMENT RETURN AIR NODE,SPLIT MNW
 Return Air Path,11,SPLIT MSE RETURN AIR PATH,SPLIT MSE
   #Components on Return Air Path,1
   Return Air Path Component,1,AIRLOOPHVAC:ZONEMIXER,SPLIT MSE RETURN AIR MIXER,SPLIT MSE
     #Inlet Nodes on Return Air Path Component,1
     Return Air Path Component Nodes,1,AIRLOOPHVAC:ZONEMIXER,SPLIT MSE RETURN AIR MIXER,M SE APARTMENT RETURN AIR NODE,SPLIT MSE ZONE EQUIPMENT OUTLET NODE,SPLIT MSE
! <#Nodes on Return Air Path>,<Number of Nodes>
! <Return Air Path Node>,<Node Type>,<Node Count>,<Node Name>,<AirLoopHVAC Name>
   #Nodes on Return Air Path,2
   Return Air Path Node,Outlet Node,1,SPLIT MSE ZONE EQUIPMENT OUTLET NODE,SPLIT MSE
   Return Air Path Node,Inlet Node,2,M SE APARTMENT RETURN AIR NODE,SPLIT MSE
 Return Air Path,12,SPLIT MNE RETURN AIR PATH,SPLIT MNE
   #Components on Return Air Path,1
   Return Air Path Component,1,AIRLOOPHVAC:ZONEMIXER,SPLIT MNE RETURN AIR MIXER,SPLIT MNE
     #Inlet Nodes on Return Air Path Component,1
     Return Air Path Component Nodes,1,AIRLOOPHVAC:ZONEMIXER,SPLIT MNE RETURN AIR MIXER,M NE APARTMENT RETURN AIR NODE,SPLIT MNE ZONE EQUIPMENT OUTLET NODE,SPLIT MNE
! <#Nodes on Return Air Path>,<Number of Nodes>
! <Return Air Path Node>,<Node Type>,<Node Count>,<Node Name>,<AirLoopHVAC Name>
   #Nodes on Return Air Path,2
   Return Air Path Node,Outlet Node,1,SPLIT MNE ZONE EQUIPMENT OUTLET NODE,SPLIT MNE
   Return Air Path Node,Inlet Node,2,M NE APARTMENT RETURN AIR NODE,SPLIT MNE
 Return Air Path,13,SPLIT MN1 RETURN AIR PATH,SPLIT MN1
   #Components on Return Air Path,1
   Return Air Path Component,1,AIRLOOPHVAC:ZONEMIXER,SPLIT MN1 RETURN AIR MIXER,SPLIT MN1
     #Inlet Nodes on Return Air Path Component,1
     Return Air Path Component Nodes,1,AIRLOOPHVAC:ZONEMIXER,SPLIT MN1 RETURN AIR MIXER,M N1 APARTMENT RETURN AIR NODE,SPLIT MN1 ZONE EQUIPMENT OUTLET NODE,SPLIT MN1
! <#Nodes on Return Air Path>,<Number of Nodes>
! <Return Air Path Node>,<Node Type>,<Node Count>,<Node Name>,<AirLoopHVAC Name>
   #Nodes on Return Air Path,2
   Return Air Path Node,Outlet Node,1,SPLIT MN1 ZONE EQUIPMENT OUTLET NODE,SPLIT MN1
   Return Air Path Node,Inlet Node,2,M N1 APARTMENT RETURN AIR NODE,SPLIT MN1
 Return Air Path,14,SPLIT MN2 RETURN AIR PATH,SPLIT MN2
   #Components on Return Air Path,1
   Return Air Path Component,1,AIRLOOPHVAC:ZONEMIXER,SPLIT MN2 RETURN AIR MIXER,SPLIT MN2
     #Inlet Nodes on Return Air Path Component,1
     Return Air Path Component Nodes,1,AIRLOOPHVAC:ZONEMIXER,SPLIT MN2 RETURN AIR MIXER,M N2 APARTMENT RETURN AIR NODE,SPLIT MN2 ZONE EQUIPMENT OUTLET NODE,SPLIT MN2
! <#Nodes on Return Air Path>,<Number of Nodes>
! <Return Air Path Node>,<Node Type>,<Node Count>,<Node Name>,<AirLoopHVAC Name>
   #Nodes on Return Air Path,2
   Return Air Path Node,Outlet Node,1,SPLIT MN2 ZONE EQUIPMENT OUTLET NODE,SPLIT MN2
   Return Air Path Node,Inlet Node,2,M N2 APARTMENT RETURN AIR NODE,SPLIT MN2
 Return Air Path,15,SPLIT MS1 RETURN AIR PATH,SPLIT MS1
   #Components on Return Air Path,1
   Return Air Path Component,1,AIRLOOPHVAC:ZONEMIXER,SPLIT MS1 RETURN AIR MIXER,SPLIT MS1
     #Inlet Nodes on Return Air Path Component,1
     Return Air Path Component Nodes,1,AIRLOOPHVAC:ZONEMIXER,SPLIT MS1 RETURN AIR MIXER,M S1 APARTMENT RETURN AIR NODE,SPLIT MS1 ZONE EQUIPMENT OUTLET NODE,SPLIT MS1
! <#Nodes on Return Air Path>,<Number of Nodes>
! <Return Air Path Node>,<Node Type>,<Node Count>,<Node Name>,<AirLoopHVAC Name>
   #Nodes on Return Air Path,2
   Return Air Path Node,Outlet Node,1,SPLIT MS1 ZONE EQUIPMENT OUTLET NODE,SPLIT MS1
   Return Air Path Node,Inlet Node,2,M S1 APARTMENT RETURN AIR NODE,SPLIT MS1
 Return Air Path,16,SPLIT MS2 RETURN AIR PATH,SPLIT MS2
   #Components on Return Air Path,1
   Return Air Path Component,1,AIRLOOPHVAC:ZONEMIXER,SPLIT MS2 RETURN AIR MIXER,SPLIT MS2
     #Inlet Nodes on Return Air Path Component,1
     Return Air Path Component Nodes,1,AIRLOOPHVAC:ZONEMIXER,SPLIT MS2 RETURN AIR MIXER,M S2 APARTMENT RETURN AIR NODE,SPLIT MS2 ZONE EQUIPMENT OUTLET NODE,SPLIT MS2
! <#Nodes on Return Air Path>,<Number of Nodes>
! <Return Air Path Node>,<Node Type>,<Node Count>,<Node Name>,<AirLoopHVAC Name>
   #Nodes on Return Air Path,2
   Return Air Path Node,Outlet Node,1,SPLIT MS2 ZONE EQUIPMENT OUTLET NODE,SPLIT MS2
   Return Air Path Node,Inlet Node,2,M S2 APARTMENT RETURN AIR NODE,SPLIT MS2
 Return Air Path,17,SPLIT TSW RETURN AIR PATH,SPLIT TSW
   #Components on Return Air Path,1
   Return Air Path Component,1,AIRLOOPHVAC:ZONEMIXER,SPLIT TSW RETURN AIR MIXER,SPLIT TSW
     #Inlet Nodes on Return Air Path Component,1
     Return Air Path Component Nodes,1,AIRLOOPHVAC:ZONEMIXER,SPLIT TSW RETURN AIR MIXER,T SW APARTMENT RETURN AIR NODE,SPLIT TSW ZONE EQUIPMENT OUTLET NODE,SPLIT TSW
! <#Nodes on Return Air Path>,<Number of Nodes>
! <Return Air Path Node>,<Node Type>,<Node Count>,<Node Name>,<AirLoopHVAC Name>
   #Nodes on Return Air Path,2
   Return Air Path Node,Outlet Node,1,SPLIT TSW ZONE EQUIPMENT OUTLET NODE,SPLIT TSW
   Return Air Path Node,Inlet Node,2,T SW APARTMENT RETURN AIR NODE,SPLIT TSW
 Return Air Path,18,SPLIT TNW RETURN AIR PATH,SPLIT TNW
   #Components on Return Air Path,1
   Return Air Path Component,1,AIRLOOPHVAC:ZONEMIXER,SPLIT TNW RETURN AIR MIXER,SPLIT TNW
     #Inlet Nodes on Return Air Path Component,1
     Return Air Path Component Nodes,1,AIRLOOPHVAC:ZONEMIXER,SPLIT TNW RETURN AIR MIXER,T NW APARTMENT RETURN AIR NODE,SPLIT TNW ZONE EQUIPMENT OUTLET NODE,SPLIT TNW
! <#Nodes on Return Air Path>,<Number of Nodes>
! <Return Air Path Node>,<Node Type>,<Node Count>,<Node Name>,<AirLoopHVAC Name>
   #Nodes on Return Air Path,2
   Return Air Path Node,Outlet Node,1,SPLIT TNW ZONE EQUIPMENT OUTLET NODE,SPLIT TNW
   Return Air Path Node,Inlet Node,2,T NW APARTMENT RETURN AIR NODE,SPLIT TNW
 Return Air Path,19,SPLIT TSE RETURN AIR PATH,SPLIT TSE
   #Components on Return Air Path,1
   Return Air Path Component,1,AIRLOOPHVAC:ZONEMIXER,SPLIT TSE RETURN AIR MIXER,SPLIT TSE
     #Inlet Nodes on Return Air Path Component,1
     Return Air Path Component Nodes,1,AIRLOOPHVAC:ZONEMIXER,SPLIT TSE RETURN AIR MIXER,T SE APARTMENT RETURN AIR NODE,SPLIT TSE ZONE EQUIPMENT OUTLET NODE,SPLIT TSE
! <#Nodes on Return Air Path>,<Number of Nodes>
! <Return Air Path Node>,<Node Type>,<Node Count>,<Node Name>,<AirLoopHVAC Name>
   #Nodes on Return Air Path,2
   Return Air Path Node,Outlet Node,1,SPLIT TSE ZONE EQUIPMENT OUTLET NODE,SPLIT TSE
   Return Air Path Node,Inlet Node,2,T SE APARTMENT RETURN AIR NODE,SPLIT TSE
 Return Air Path,20,SPLIT TNE RETURN AIR PATH,SPLIT TNE
   #Components on Return Air Path,1
   Return Air Path Component,1,AIRLOOPHVAC:ZONEMIXER,SPLIT TNE RETURN AIR MIXER,SPLIT TNE
     #Inlet Nodes on Return Air Path Component,1
     Return Air Path Component Nodes,1,AIRLOOPHVAC:ZONEMIXER,SPLIT TNE RETURN AIR MIXER,T NE APARTMENT RETURN AIR NODE,SPLIT TNE ZONE EQUIPMENT OUTLET NODE,SPLIT TNE
! <#Nodes on Return Air Path>,<Number of Nodes>
! <Return Air Path Node>,<Node Type>,<Node Count>,<Node Name>,<AirLoopHVAC Name>
   #Nodes on Return Air Path,2
   Return Air Path Node,Outlet Node,1,SPLIT TNE ZONE EQUIPMENT OUTLET NODE,SPLIT TNE
   Return Air Path Node,Inlet Node,2,T NE APARTMENT RETURN AIR NODE,SPLIT TNE
 Return Air Path,21,SPLIT TN1 RETURN AIR PATH,SPLIT TN1
   #Components on Return Air Path,1
   Return Air Path Component,1,AIRLOOPHVAC:ZONEMIXER,SPLIT TN1 RETURN AIR MIXER,SPLIT TN1
     #Inlet Nodes on Return Air Path Component,1
     Return Air Path Component Nodes,1,AIRLOOPHVAC:ZONEMIXER,SPLIT TN1 RETURN AIR MIXER,T N1 APARTMENT RETURN AIR NODE,SPLIT TN1 ZONE EQUIPMENT OUTLET NODE,SPLIT TN1
! <#Nodes on Return Air Path>,<Number of Nodes>
! <Return Air Path Node>,<Node Type>,<Node Count>,<Node Name>,<AirLoopHVAC Name>
   #Nodes on Return Air Path,2
   Return Air Path Node,Outlet Node,1,SPLIT TN1 ZONE EQUIPMENT OUTLET NODE,SPLIT TN1
   Return Air Path Node,Inlet Node,2,T N1 APARTMENT RETURN AIR NODE,SPLIT TN1
 Return Air Path,22,SPLIT TN2 RETURN AIR PATH,SPLIT TN2
   #Components on Return Air Path,1
   Return Air Path Component,1,AIRLOOPHVAC:ZONEMIXER,SPLIT TN2 RETURN AIR MIXER,SPLIT TN2
     #Inlet Nodes on Return Air Path Component,1
     Return Air Path Component Nodes,1,AIRLOOPHVAC:ZONEMIXER,SPLIT TN2 RETURN AIR MIXER,T N2 APARTMENT RETURN AIR NODE,SPLIT TN2 ZONE EQUIPMENT OUTLET NODE,SPLIT TN2
! <#Nodes on Return Air Path>,<Number of Nodes>
! <Return Air Path Node>,<Node Type>,<Node Count>,<Node Name>,<AirLoopHVAC Name>
   #Nodes on Return Air Path,2
   Return Air Path Node,Outlet Node,1,SPLIT TN2 ZONE EQUIPMENT OUTLET NODE,SPLIT TN2
   Return Air Path Node,Inlet Node,2,T N2 APARTMENT RETURN AIR NODE,SPLIT TN2
 Return Air Path,23,SPLIT TS1 RETURN AIR PATH,SPLIT TS1
   #Components on Return Air Path,1
   Return Air Path Component,1,AIRLOOPHVAC:ZONEMIXER,SPLIT TS1 RETURN AIR MIXER,SPLIT TS1
     #Inlet Nodes on Return Air Path Component,1
     Return Air Path Component Nodes,1,AIRLOOPHVAC:ZONEMIXER,SPLIT TS1 RETURN AIR MIXER,T S1 APARTMENT RETURN AIR NODE,SPLIT TS1 ZONE EQUIPMENT OUTLET NODE,SPLIT TS1
! <#Nodes on Return Air Path>,<Number of Nodes>
! <Return Air Path Node>,<Node Type>,<Node Count>,<Node Name>,<AirLoopHVAC Name>
   #Nodes on Return Air Path,2
   Return Air Path Node,Outlet Node,1,SPLIT TS1 ZONE EQUIPMENT OUTLET NODE,SPLIT TS1
   Return Air Path Node,Inlet Node,2,T S1 APARTMENT RETURN AIR NODE,SPLIT TS1
 Return Air Path,24,SPLIT TS2 RETURN AIR PATH,SPLIT TS2
   #Components on Return Air Path,1
   Return Air Path Component,1,AIRLOOPHVAC:ZONEMIXER,SPLIT TS2 RETURN AIR MIXER,SPLIT TS2
     #Inlet Nodes on Return Air Path Component,1
     Return Air Path Component Nodes,1,AIRLOOPHVAC:ZONEMIXER,SPLIT TS2 RETURN AIR MIXER,T S2 APARTMENT RETURN AIR NODE,SPLIT TS2 ZONE EQUIPMENT OUTLET NODE,SPLIT TS2
! <#Nodes on Return Air Path>,<Number of Nodes>
! <Return Air Path Node>,<Node Type>,<Node Count>,<Node Name>,<AirLoopHVAC Name>
   #Nodes on Return Air Path,2
   Return Air Path Node,Outlet Node,1,SPLIT TS2 ZONE EQUIPMENT OUTLET NODE,SPLIT TS2
   Return Air Path Node,Inlet Node,2,T S2 APARTMENT RETURN AIR NODE,SPLIT TS2
! ===============================================================
! #Outdoor Air Nodes,<Number of Outdoor Air Nodes>
 #Outdoor Air Nodes,47
! <Outdoor Air Node>,<NodeNumber>,<Node Name>
 Outdoor Air Node,4,SPLIT GSW OAINLET NODE
 Outdoor Air Node,8,SPLIT GNW OAINLET NODE
 Outdoor Air Node,10,SPLIT OFFICE OAINLET NODE
 Outdoor Air Node,14,SPLIT GNE OAINLET NODE
 Outdoor Air Node,18,SPLIT GN1 OAINLET NODE
 Outdoor Air Node,22,SPLIT GN2 OAINLET NODE
 Outdoor Air Node,26,SPLIT GS1 OAINLET NODE
 Outdoor Air Node,30,SPLIT GS2 OAINLET NODE
 Outdoor Air Node,34,SPLIT MSW OAINLET NODE
 Outdoor Air Node,38,SPLIT MNW OAINLET NODE
 Outdoor Air Node,42,SPLIT MSE OAINLET NODE
 Outdoor Air Node,46,SPLIT MNE OAINLET NODE
 Outdoor Air Node,50,SPLIT MN1 OAINLET NODE
 Outdoor Air Node,54,SPLIT MN2 OAINLET NODE
 Outdoor Air Node,58,SPLIT MS1 OAINLET NODE
 Outdoor Air Node,62,SPLIT MS2 OAINLET NODE
 Outdoor Air Node,66,SPLIT TSW OAINLET NODE
 Outdoor Air Node,70,SPLIT TNW OAINLET NODE
 Outdoor Air Node,74,SPLIT TSE OAINLET NODE
 Outdoor Air Node,78,SPLIT TNE OAINLET NODE
 Outdoor Air Node,82,SPLIT TN1 OAINLET NODE
 Outdoor Air Node,86,SPLIT TN2 OAINLET NODE
 Outdoor Air Node,90,SPLIT TS1 OAINLET NODE
 Outdoor Air Node,94,SPLIT TS2 OAINLET NODE
 Outdoor Air Node,263,G SW APARTMENT OUTSIDE AIR NODE
 Outdoor Air Node,264,G NW APARTMENT OUTSIDE AIR NODE
 Outdoor Air Node,265,G NE APARTMENT OUTSIDE AIR NODE
 Outdoor Air Node,266,G N1 APARTMENT OUTSIDE AIR NODE
 Outdoor Air Node,267,G N2 APARTMENT OUTSIDE AIR NODE
 Outdoor Air Node,268,G S1 APARTMENT OUTSIDE AIR NODE
 Outdoor Air Node,269,G S2 APARTMENT OUTSIDE AIR NODE
 Outdoor Air Node,270,M SW APARTMENT OUTSIDE AIR NODE
 Outdoor Air Node,271,M NW APARTMENT OUTSIDE AIR NODE
 Outdoor Air Node,272,M SE APARTMENT OUTSIDE AIR NODE
 Outdoor Air Node,273,M NE APARTMENT OUTSIDE AIR NODE
 Outdoor Air Node,274,M N1 APARTMENT OUTSIDE AIR NODE
 Outdoor Air Node,275,M N2 APARTMENT OUTSIDE AIR NODE
 Outdoor Air Node,276,M S1 APARTMENT OUTSIDE AIR NODE
 Outdoor Air Node,277,M S2 APARTMENT OUTSIDE AIR NODE
 Outdoor Air Node,278,T SW APARTMENT OUTSIDE AIR NODE
 Outdoor Air Node,279,T NW APARTMENT OUTSIDE AIR NODE
 Outdoor Air Node,280,T SE APARTMENT OUTSIDE AIR NODE
 Outdoor Air Node,281,T NE APARTMENT OUTSIDE AIR NODE
 Outdoor Air Node,282,T N1 APARTMENT OUTSIDE AIR NODE
 Outdoor Air Node,283,T N2 APARTMENT OUTSIDE AIR NODE
 Outdoor Air Node,284,T S1 APARTMENT OUTSIDE AIR NODE
 Outdoor Air Node,285,T S2 APARTMENT OUTSIDE AIR NODE
! ===============================================================
! <#Component Sets>,<Number of Component Sets>
 #Component Sets,237
! <Component Set>,<Component Set Count>,<Parent Object Type>,<Parent Object Name>,<Component Type>,<Component Name>,<Inlet Node ID>,<Outlet Node ID>,<Description>
 Component Set,1,BRANCH,SPLIT GSW AIR LOOP MAIN BRANCH,AIRLOOPHVAC:OUTDOORAIRSYSTEM,SPLIT GSW_OA,SPLIT GSW SUPPLY EQUIPMENT INLET NODE,SPLIT GSW MIXED AIR OUTLET,Air Nodes
 Component Set,2,BRANCH,SPLIT GSW AIR LOOP MAIN BRANCH,AIRLOOPHVAC:UNITARYSYSTEM,SPLIT GSW_UNITARY_PACKAGE_DX,SPLIT GSW MIXED AIR OUTLET,SPLIT GSW SUPPLY EQUIPMENT OUTLET NODE,Air Nodes
 Component Set,3,BRANCH,SPLIT GNW AIR LOOP MAIN BRANCH,AIRLOOPHVAC:OUTDOORAIRSYSTEM,SPLIT GNW_OA,SPLIT GNW SUPPLY EQUIPMENT INLET NODE,SPLIT GNW MIXED AIR OUTLET,Air Nodes
 Component Set,4,BRANCH,SPLIT GNW AIR LOOP MAIN BRANCH,AIRLOOPHVAC:UNITARYSYSTEM,SPLIT GNW_UNITARY_PACKAGE_DX,SPLIT GNW MIXED AIR OUTLET,SPLIT GNW SUPPLY EQUIPMENT OUTLET NODE,Air Nodes
 Component Set,5,BRANCH,SPLIT OFFICE AIR LOOP MAIN BRANCH,AIRLOOPHVAC:OUTDOORAIRSYSTEM,SPLIT OFFICE_OA,SPLIT OFFICE SUPPLY EQUIPMENT INLET NODE,SPLIT OFFICE MIXED AIR OUTLET,Air Nodes
 Component Set,6,BRANCH,SPLIT OFFICE AIR LOOP MAIN BRANCH,AIRLOOPHVAC:UNITARYSYSTEM,SPLIT OFFICE_UNITARY_PACKAGE_DX,SPLIT OFFICE MIXED AIR OUTLET,SPLIT OFFICE SUPPLY EQUIPMENT OUTLET NODE,Air Nodes
 Component Set,7,BRANCH,SPLIT GNE AIR LOOP MAIN BRANCH,AIRLOOPHVAC:OUTDOORAIRSYSTEM,SPLIT GNE_OA,SPLIT GNE SUPPLY EQUIPMENT INLET NODE,SPLIT GNE MIXED AIR OUTLET,Air Nodes
 Component Set,8,BRANCH,SPLIT GNE AIR LOOP MAIN BRANCH,AIRLOOPHVAC:UNITARYSYSTEM,SPLIT GNE_UNITARY_PACKAGE_DX,SPLIT GNE MIXED AIR OUTLET,SPLIT GNE SUPPLY EQUIPMENT OUTLET NODE,Air Nodes
 Component Set,9,BRANCH,SPLIT GN1 AIR LOOP MAIN BRANCH,AIRLOOPHVAC:OUTDOORAIRSYSTEM,SPLIT GN1_OA,SPLIT GN1 SUPPLY EQUIPMENT INLET NODE,SPLIT GN1 MIXED AIR OUTLET,Air Nodes
 Component Set,10,BRANCH,SPLIT GN1 AIR LOOP MAIN BRANCH,AIRLOOPHVAC:UNITARYSYSTEM,SPLIT GN1_UNITARY_PACKAGE_DX,SPLIT GN1 MIXED AIR OUTLET,SPLIT GN1 SUPPLY EQUIPMENT OUTLET NODE,Air Nodes
 Component Set,11,BRANCH,SPLIT GN2 AIR LOOP MAIN BRANCH,AIRLOOPHVAC:OUTDOORAIRSYSTEM,SPLIT GN2_OA,SPLIT GN2 SUPPLY EQUIPMENT INLET NODE,SPLIT GN2 MIXED AIR OUTLET,Air Nodes
 Component Set,12,BRANCH,SPLIT GN2 AIR LOOP MAIN BRANCH,AIRLOOPHVAC:UNITARYSYSTEM,SPLIT GN2_UNITARY_PACKAGE_DX,SPLIT GN2 MIXED AIR OUTLET,SPLIT GN2 SUPPLY EQUIPMENT OUTLET NODE,Air Nodes
 Component Set,13,BRANCH,SPLIT GS1 AIR LOOP MAIN BRANCH,AIRLOOPHVAC:OUTDOORAIRSYSTEM,SPLIT GS1_OA,SPLIT GS1 SUPPLY EQUIPMENT INLET NODE,SPLIT GS1 MIXED AIR OUTLET,Air Nodes
 Component Set,14,BRANCH,SPLIT GS1 AIR LOOP MAIN BRANCH,AIRLOOPHVAC:UNITARYSYSTEM,SPLIT GS1_UNITARY_PACKAGE_DX,SPLIT GS1 MIXED AIR OUTLET,SPLIT GS1 SUPPLY EQUIPMENT OUTLET NODE,Air Nodes
 Component Set,15,BRANCH,SPLIT GS2 AIR LOOP MAIN BRANCH,AIRLOOPHVAC:OUTDOORAIRSYSTEM,SPLIT GS2_OA,SPLIT GS2 SUPPLY EQUIPMENT INLET NODE,SPLIT GS2 MIXED AIR OUTLET,Air Nodes
 Component Set,16,BRANCH,SPLIT GS2 AIR LOOP MAIN BRANCH,AIRLOOPHVAC:UNITARYSYSTEM,SPLIT GS2_UNITARY_PACKAGE_DX,SPLIT GS2 MIXED AIR OUTLET,SPLIT GS2 SUPPLY EQUIPMENT OUTLET NODE,Air Nodes
 Component Set,17,BRANCH,SPLIT MSW AIR LOOP MAIN BRANCH,AIRLOOPHVAC:OUTDOORAIRSYSTEM,SPLIT MSW_OA,SPLIT MSW SUPPLY EQUIPMENT INLET NODE,SPLIT MSW MIXED AIR OUTLET,Air Nodes
 Component Set,18,BRANCH,SPLIT MSW AIR LOOP MAIN BRANCH,AIRLOOPHVAC:UNITARYSYSTEM,SPLIT MSW_UNITARY_PACKAGE_DX,SPLIT MSW MIXED AIR OUTLET,SPLIT MSW SUPPLY EQUIPMENT OUTLET NODE,Air Nodes
 Component Set,19,BRANCH,SPLIT MNW AIR LOOP MAIN BRANCH,AIRLOOPHVAC:OUTDOORAIRSYSTEM,SPLIT MNW_OA,SPLIT MNW SUPPLY EQUIPMENT INLET NODE,SPLIT MNW MIXED AIR OUTLET,Air Nodes
 Component Set,20,BRANCH,SPLIT MNW AIR LOOP MAIN BRANCH,AIRLOOPHVAC:UNITARYSYSTEM,SPLIT MNW_UNITARY_PACKAGE_DX,SPLIT MNW MIXED AIR OUTLET,SPLIT MNW SUPPLY EQUIPMENT OUTLET NODE,Air Nodes
 Component Set,21,BRANCH,SPLIT MSE AIR LOOP MAIN BRANCH,AIRLOOPHVAC:OUTDOORAIRSYSTEM,SPLIT MSE_OA,SPLIT MSE SUPPLY EQUIPMENT INLET NODE,SPLIT MSE MIXED AIR OUTLET,Air Nodes
 Component Set,22,BRANCH,SPLIT MSE AIR LOOP MAIN BRANCH,AIRLOOPHVAC:UNITARYSYSTEM,SPLIT MSE_UNITARY_PACKAGE_DX,SPLIT MSE MIXED AIR OUTLET,SPLIT MSE SUPPLY EQUIPMENT OUTLET NODE,Air Nodes
 Component Set,23,BRANCH,SPLIT MNE AIR LOOP MAIN BRANCH,AIRLOOPHVAC:OUTDOORAIRSYSTEM,SPLIT MNE_OA,SPLIT MNE SUPPLY EQUIPMENT INLET NODE,SPLIT MNE MIXED AIR OUTLET,Air Nodes
 Component Set,24,BRANCH,SPLIT MNE AIR LOOP MAIN BRANCH,AIRLOOPHVAC:UNITARYSYSTEM,SPLIT MNE_UNITARY_PACKAGE_DX,SPLIT MNE MIXED AIR OUTLET,SPLIT MNE SUPPLY EQUIPMENT OUTLET NODE,Air Nodes
 Component Set,25,BRANCH,SPLIT MN1 AIR LOOP MAIN BRANCH,AIRLOOPHVAC:OUTDOORAIRSYSTEM,SPLIT MN1_OA,SPLIT MN1 SUPPLY EQUIPMENT INLET NODE,SPLIT MN1 MIXED AIR OUTLET,Air Nodes
 Component Set,26,BRANCH,SPLIT MN1 AIR LOOP MAIN BRANCH,AIRLOOPHVAC:UNITARYSYSTEM,SPLIT MN1_UNITARY_PACKAGE_DX,SPLIT MN1 MIXED AIR OUTLET,SPLIT MN1 SUPPLY EQUIPMENT OUTLET NODE,Air Nodes
 Component Set,27,BRANCH,SPLIT MN2 AIR LOOP MAIN BRANCH,AIRLOOPHVAC:OUTDOORAIRSYSTEM,SPLIT MN2_OA,SPLIT MN2 SUPPLY EQUIPMENT INLET NODE,SPLIT MN2 MIXED AIR OUTLET,Air Nodes
 Component Set,28,BRANCH,SPLIT MN2 AIR LOOP MAIN BRANCH,AIRLOOPHVAC:UNITARYSYSTEM,SPLIT MN2_UNITARY_PACKAGE_DX,SPLIT MN2 MIXED AIR OUTLET,SPLIT MN2 SUPPLY EQUIPMENT OUTLET NODE,Air Nodes
 Component Set,29,BRANCH,SPLIT MS1 AIR LOOP MAIN BRANCH,AIRLOOPHVAC:OUTDOORAIRSYSTEM,SPLIT MS1_OA,SPLIT MS1 SUPPLY EQUIPMENT INLET NODE,SPLIT MS1 MIXED AIR OUTLET,Air Nodes
 Component Set,30,BRANCH,SPLIT MS1 AIR LOOP MAIN BRANCH,AIRLOOPHVAC:UNITARYSYSTEM,SPLIT MS1_UNITARY_PACKAGE_DX,SPLIT MS1 MIXED AIR OUTLET,SPLIT MS1 SUPPLY EQUIPMENT OUTLET NODE,Air Nodes
 Component Set,31,BRANCH,SPLIT MS2 AIR LOOP MAIN BRANCH,AIRLOOPHVAC:OUTDOORAIRSYSTEM,SPLIT MS2_OA,SPLIT MS2 SUPPLY EQUIPMENT INLET NODE,SPLIT MS2 MIXED AIR OUTLET,Air Nodes
 Component Set,32,BRANCH,SPLIT MS2 AIR LOOP MAIN BRANCH,AIRLOOPHVAC:UNITARYSYSTEM,SPLIT MS2_UNITARY_PACKAGE_DX,SPLIT MS2 MIXED AIR OUTLET,SPLIT MS2 SUPPLY EQUIPMENT OUTLET NODE,Air Nodes
 Component Set,33,BRANCH,SPLIT TSW AIR LOOP MAIN BRANCH,AIRLOOPHVAC:OUTDOORAIRSYSTEM,SPLIT TSW_OA,SPLIT TSW SUPPLY EQUIPMENT INLET NODE,SPLIT TSW MIXED AIR OUTLET,Air Nodes
 Component Set,34,BRANCH,SPLIT TSW AIR LOOP MAIN BRANCH,AIRLOOPHVAC:UNITARYSYSTEM,SPLIT TSW_UNITARY_PACKAGE_DX,SPLIT TSW MIXED AIR OUTLET,SPLIT TSW SUPPLY EQUIPMENT OUTLET NODE,Air Nodes
 Component Set,35,BRANCH,SPLIT TNW AIR LOOP MAIN BRANCH,AIRLOOPHVAC:OUTDOORAIRSYSTEM,SPLIT TNW_OA,SPLIT TNW SUPPLY EQUIPMENT INLET NODE,SPLIT TNW MIXED AIR OUTLET,Air Nodes
 Component Set,36,BRANCH,SPLIT TNW AIR LOOP MAIN BRANCH,AIRLOOPHVAC:UNITARYSYSTEM,SPLIT TNW_UNITARY_PACKAGE_DX,SPLIT TNW MIXED AIR OUTLET,SPLIT TNW SUPPLY EQUIPMENT OUTLET NODE,Air Nodes
 Component Set,37,BRANCH,SPLIT TSE AIR LOOP MAIN BRANCH,AIRLOOPHVAC:OUTDOORAIRSYSTEM,SPLIT TSE_OA,SPLIT TSE SUPPLY EQUIPMENT INLET NODE,SPLIT TSE MIXED AIR OUTLET,Air Nodes
 Component Set,38,BRANCH,SPLIT TSE AIR LOOP MAIN BRANCH,AIRLOOPHVAC:UNITARYSYSTEM,SPLIT TSE_UNITARY_PACKAGE_DX,SPLIT TSE MIXED AIR OUTLET,SPLIT TSE SUPPLY EQUIPMENT OUTLET NODE,Air Nodes
 Component Set,39,BRANCH,SPLIT TNE AIR LOOP MAIN BRANCH,AIRLOOPHVAC:OUTDOORAIRSYSTEM,SPLIT TNE_OA,SPLIT TNE SUPPLY EQUIPMENT INLET NODE,SPLIT TNE MIXED AIR OUTLET,Air Nodes
 Component Set,40,BRANCH,SPLIT TNE AIR LOOP MAIN BRANCH,AIRLOOPHVAC:UNITARYSYSTEM,SPLIT TNE_UNITARY_PACKAGE_DX,SPLIT TNE MIXED AIR OUTLET,SPLIT TNE SUPPLY EQUIPMENT OUTLET NODE,Air Nodes
 Component Set,41,BRANCH,SPLIT TN1 AIR LOOP MAIN BRANCH,AIRLOOPHVAC:OUTDOORAIRSYSTEM,SPLIT TN1_OA,SPLIT TN1 SUPPLY EQUIPMENT INLET NODE,SPLIT TN1 MIXED AIR OUTLET,Air Nodes
 Component Set,42,BRANCH,SPLIT TN1 AIR LOOP MAIN BRANCH,AIRLOOPHVAC:UNITARYSYSTEM,SPLIT TN1_UNITARY_PACKAGE_DX,SPLIT TN1 MIXED AIR OUTLET,SPLIT TN1 SUPPLY EQUIPMENT OUTLET NODE,Air Nodes
 Component Set,43,BRANCH,SPLIT TN2 AIR LOOP MAIN BRANCH,AIRLOOPHVAC:OUTDOORAIRSYSTEM,SPLIT TN2_OA,SPLIT TN2 SUPPLY EQUIPMENT INLET NODE,SPLIT TN2 MIXED AIR OUTLET,Air Nodes
 Component Set,44,BRANCH,SPLIT TN2 AIR LOOP MAIN BRANCH,AIRLOOPHVAC:UNITARYSYSTEM,SPLIT TN2_UNITARY_PACKAGE_DX,SPLIT TN2 MIXED AIR OUTLET,SPLIT TN2 SUPPLY EQUIPMENT OUTLET NODE,Air Nodes
 Component Set,45,BRANCH,SPLIT TS1 AIR LOOP MAIN BRANCH,AIRLOOPHVAC:OUTDOORAIRSYSTEM,SPLIT TS1_OA,SPLIT TS1 SUPPLY EQUIPMENT INLET NODE,SPLIT TS1 MIXED AIR OUTLET,Air Nodes
 Component Set,46,BRANCH,SPLIT TS1 AIR LOOP MAIN BRANCH,AIRLOOPHVAC:UNITARYSYSTEM,SPLIT TS1_UNITARY_PACKAGE_DX,SPLIT TS1 MIXED AIR OUTLET,SPLIT TS1 SUPPLY EQUIPMENT OUTLET NODE,Air Nodes
 Component Set,47,BRANCH,SPLIT TS2 AIR LOOP MAIN BRANCH,AIRLOOPHVAC:OUTDOORAIRSYSTEM,SPLIT TS2_OA,SPLIT TS2 SUPPLY EQUIPMENT INLET NODE,SPLIT TS2 MIXED AIR OUTLET,Air Nodes
 Component Set,48,BRANCH,SPLIT TS2 AIR LOOP MAIN BRANCH,AIRLOOPHVAC:UNITARYSYSTEM,SPLIT TS2_UNITARY_PACKAGE_DX,SPLIT TS2 MIXED AIR OUTLET,SPLIT TS2 SUPPLY EQUIPMENT OUTLET NODE,Air Nodes
 Component Set,49,ZONEHVAC:ENERGYRECOVERYVENTILATOR,G SW APARTMENT ERV,HEATEXCHANGER:AIRTOAIR:SENSIBLEANDLATENT,G SW APARTMENT OA HEAT EXCHANGER,G SW APARTMENT OUTSIDE AIR NODE,G SW APARTMENT ERV OUTLET NODE,Process Air Nodes
 Component Set,50,ZONEHVAC:ENERGYRECOVERYVENTILATOR,G NW APARTMENT ERV,HEATEXCHANGER:AIRTOAIR:SENSIBLEANDLATENT,G NW APARTMENT OA HEAT EXCHANGER,G NW APARTMENT OUTSIDE AIR NODE,G NW APARTMENT ERV OUTLET NODE,Process Air Nodes
 Component Set,51,ZONEHVAC:ENERGYRECOVERYVENTILATOR,G NE APARTMENT ERV,HEATEXCHANGER:AIRTOAIR:SENSIBLEANDLATENT,G NE APARTMENT OA HEAT EXCHANGER,G NE APARTMENT OUTSIDE AIR NODE,G NE APARTMENT ERV OUTLET NODE,Process Air Nodes
 Component Set,52,ZONEHVAC:ENERGYRECOVERYVENTILATOR,G N1 APARTMENT ERV,HEATEXCHANGER:AIRTOAIR:SENSIBLEANDLATENT,G N1 APARTMENT OA HEAT EXCHANGER,G N1 APARTMENT OUTSIDE AIR NODE,G N1 APARTMENT ERV OUTLET NODE,Process Air Nodes
 Component Set,53,ZONEHVAC:ENERGYRECOVERYVENTILATOR,G N2 APARTMENT ERV,HEATEXCHANGER:AIRTOAIR:SENSIBLEANDLATENT,G N2 APARTMENT OA HEAT EXCHANGER,G N2 APARTMENT OUTSIDE AIR NODE,G N2 APARTMENT ERV OUTLET NODE,Process Air Nodes
 Component Set,54,ZONEHVAC:ENERGYRECOVERYVENTILATOR,G S1 APARTMENT ERV,HEATEXCHANGER:AIRTOAIR:SENSIBLEANDLATENT,G S1 APARTMENT OA HEAT EXCHANGER,G S1 APARTMENT OUTSIDE AIR NODE,G S1 APARTMENT ERV OUTLET NODE,Process Air Nodes
 Component Set,55,ZONEHVAC:ENERGYRECOVERYVENTILATOR,G S2 APARTMENT ERV,HEATEXCHANGER:AIRTOAIR:SENSIBLEANDLATENT,G S2 APARTMENT OA HEAT EXCHANGER,G S2 APARTMENT OUTSIDE AIR NODE,G S2 APARTMENT ERV OUTLET NODE,Process Air Nodes
 Component Set,56,ZONEHVAC:ENERGYRECOVERYVENTILATOR,M SW APARTMENT ERV,HEATEXCHANGER:AIRTOAIR:SENSIBLEANDLATENT,M SW APARTMENT OA HEAT EXCHANGER,M SW APARTMENT OUTSIDE AIR NODE,M SW APARTMENT ERV OUTLET NODE,Process Air Nodes
 Component Set,57,ZONEHVAC:ENERGYRECOVERYVENTILATOR,M NW APARTMENT ERV,HEATEXCHANGER:AIRTOAIR:SENSIBLEANDLATENT,M NW APARTMENT OA HEAT EXCHANGER,M NW APARTMENT OUTSIDE AIR NODE,M NW APARTMENT ERV OUTLET NODE,Process Air Nodes
 Component Set,58,ZONEHVAC:ENERGYRECOVERYVENTILATOR,M SE APARTMENT ERV,HEATEXCHANGER:AIRTOAIR:SENSIBLEANDLATENT,M SE APARTMENT OA HEAT EXCHANGER,M SE APARTMENT OUTSIDE AIR NODE,M SE APARTMENT ERV OUTLET NODE,Process Air Nodes
 Component Set,59,ZONEHVAC:ENERGYRECOVERYVENTILATOR,M NE APARTMENT ERV,HEATEXCHANGER:AIRTOAIR:SENSIBLEANDLATENT,M NE APARTMENT OA HEAT EXCHANGER,M NE APARTMENT OUTSIDE AIR NODE,M NE APARTMENT ERV OUTLET NODE,Process Air Nodes
 Component Set,60,ZONEHVAC:ENERGYRECOVERYVENTILATOR,M N1 APARTMENT ERV,HEATEXCHANGER:AIRTOAIR:SENSIBLEANDLATENT,M N1 APARTMENT OA HEAT EXCHANGER,M N1 APARTMENT OUTSIDE AIR NODE,M N1 APARTMENT ERV OUTLET NODE,Process Air Nodes
 Component Set,61,ZONEHVAC:ENERGYRECOVERYVENTILATOR,M N2 APARTMENT ERV,HEATEXCHANGER:AIRTOAIR:SENSIBLEANDLATENT,M N2 APARTMENT OA HEAT EXCHANGER,M N2 APARTMENT OUTSIDE AIR NODE,M N2 APARTMENT ERV OUTLET NODE,Process Air Nodes
 Component Set,62,ZONEHVAC:ENERGYRECOVERYVENTILATOR,M S1 APARTMENT ERV,HEATEXCHANGER:AIRTOAIR:SENSIBLEANDLATENT,M S1 APARTMENT OA HEAT EXCHANGER,M S1 APARTMENT OUTSIDE AIR NODE,M S1 APARTMENT ERV OUTLET NODE,Process Air Nodes
 Component Set,63,ZONEHVAC:ENERGYRECOVERYVENTILATOR,M S2 APARTMENT ERV,HEATEXCHANGER:AIRTOAIR:SENSIBLEANDLATENT,M S2 APARTMENT OA HEAT EXCHANGER,M S2 APARTMENT OUTSIDE AIR NODE,M S2 APARTMENT ERV OUTLET NODE,Process Air Nodes
 Component Set,64,ZONEHVAC:ENERGYRECOVERYVENTILATOR,T SW APARTMENT ERV,HEATEXCHANGER:AIRTOAIR:SENSIBLEANDLATENT,T SW APARTMENT OA HEAT EXCHANGER,T SW APARTMENT OUTSIDE AIR NODE,T SW APARTMENT ERV OUTLET NODE,Process Air Nodes
 Component Set,65,ZONEHVAC:ENERGYRECOVERYVENTILATOR,T NW APARTMENT ERV,HEATEXCHANGER:AIRTOAIR:SENSIBLEANDLATENT,T NW APARTMENT OA HEAT EXCHANGER,T NW APARTMENT OUTSIDE AIR NODE,T NW APARTMENT ERV OUTLET NODE,Process Air Nodes
 Component Set,66,ZONEHVAC:ENERGYRECOVERYVENTILATOR,T SE APARTMENT ERV,HEATEXCHANGER:AIRTOAIR:SENSIBLEANDLATENT,T SE APARTMENT OA HEAT EXCHANGER,T SE APARTMENT OUTSIDE AIR NODE,T SE APARTMENT ERV OUTLET NODE,Process Air Nodes
 Component Set,67,ZONEHVAC:ENERGYRECOVERYVENTILATOR,T NE APARTMENT ERV,HEATEXCHANGER:AIRTOAIR:SENSIBLEANDLATENT,T NE APARTMENT OA HEAT EXCHANGER,T NE APARTMENT OUTSIDE AIR NODE,T NE APARTMENT ERV OUTLET NODE,Process Air Nodes
 Component Set,68,ZONEHVAC:ENERGYRECOVERYVENTILATOR,T N1 APARTMENT ERV,HEATEXCHANGER:AIRTOAIR:SENSIBLEANDLATENT,T N1 APARTMENT OA HEAT EXCHANGER,T N1 APARTMENT OUTSIDE AIR NODE,T N1 APARTMENT ERV OUTLET NODE,Process Air Nodes
 Component Set,69,ZONEHVAC:ENERGYRECOVERYVENTILATOR,T N2 APARTMENT ERV,HEATEXCHANGER:AIRTOAIR:SENSIBLEANDLATENT,T N2 APARTMENT OA HEAT EXCHANGER,T N2 APARTMENT OUTSIDE AIR NODE,T N2 APARTMENT ERV OUTLET NODE,Process Air Nodes
 Component Set,70,ZONEHVAC:ENERGYRECOVERYVENTILATOR,T S1 APARTMENT ERV,HEATEXCHANGER:AIRTOAIR:SENSIBLEANDLATENT,T S1 APARTMENT OA HEAT EXCHANGER,T S1 APARTMENT OUTSIDE AIR NODE,T S1 APARTMENT ERV OUTLET NODE,Process Air Nodes
 Component Set,71,ZONEHVAC:ENERGYRECOVERYVENTILATOR,T S2 APARTMENT ERV,HEATEXCHANGER:AIRTOAIR:SENSIBLEANDLATENT,T S2 APARTMENT OA HEAT EXCHANGER,T S2 APARTMENT OUTSIDE AIR NODE,T S2 APARTMENT ERV OUTLET NODE,Process Air Nodes
 Component Set,72,AIRLOOPHVAC:UNITARYSYSTEM,SPLIT GSW_UNITARY_PACKAGE_DX,FAN:ONOFF,SPLIT GSW SUPPLY FAN,SPLIT GSW MIXED AIR OUTLET,SPLIT GSW SUPPLY FAN OUTLET,Air Nodes
 Component Set,73,ZONEHVAC:ENERGYRECOVERYVENTILATOR,G SW APARTMENT ERV,FAN:ONOFF,G SW APARTMENT ERV SUP FAN,G SW APARTMENT ERV OUTLET NODE,G SW APARTMENT ERV SUP FAN OUTLET NODE,Air Nodes
[...]
 Non-Parent Node Connection,SPLIT MSW COOLING COIL OUTLET,COIL:HEATING:FUEL,SPLIT MSW HEATING COIL,Inlet,1
 Non-Parent Node Connection,SPLIT MSW SUPPLY EQUIPMENT OUTLET NODE,COIL:HEATING:FUEL,SPLIT MSW HEATING COIL,Outlet,1
 Non-Parent Node Connection,SPLIT MNW COOLING COIL OUTLET,COIL:HEATING:FUEL,SPLIT MNW HEATING COIL,Inlet,1
 Non-Parent Node Connection,SPLIT MNW SUPPLY EQUIPMENT OUTLET NODE,COIL:HEATING:FUEL,SPLIT MNW HEATING COIL,Outlet,1
 Non-Parent Node Connection,SPLIT MSE COOLING COIL OUTLET,COIL:HEATING:FUEL,SPLIT MSE HEATING COIL,Inlet,1
 Non-Parent Node Connection,SPLIT MSE SUPPLY EQUIPMENT OUTLET NODE,COIL:HEATING:FUEL,SPLIT MSE HEATING COIL,Outlet,1
 Non-Parent Node Connection,SPLIT MNE COOLING COIL OUTLET,COIL:HEATING:FUEL,SPLIT MNE HEATING COIL,Inlet,1
 Non-Parent Node Connection,SPLIT MNE SUPPLY EQUIPMENT OUTLET NODE,COIL:HEATING:FUEL,SPLIT MNE HEATING COIL,Outlet,1
 Non-Parent Node Connection,SPLIT MN1 COOLING COIL OUTLET,COIL:HEATING:FUEL,SPLIT MN1 HEATING COIL,Inlet,1
 Non-Parent Node Connection,SPLIT MN1 SUPPLY EQUIPMENT OUTLET NODE,COIL:HEATING:FUEL,SPLIT MN1 HEATING COIL,Outlet,1
 Non-Parent Node Connection,SPLIT MN2 COOLING COIL OUTLET,COIL:HEATING:FUEL,SPLIT MN2 HEATING COIL,Inlet,1
 Non-Parent Node Connection,SPLIT MN2 SUPPLY EQUIPMENT OUTLET NODE,COIL:HEATING:FUEL,SPLIT MN2 HEATING COIL,Outlet,1
 Non-Parent Node Connection,SPLIT MS1 COOLING COIL OUTLET,COIL:HEATING:FUEL,SPLIT MS1 HEATING COIL,Inlet,1
 Non-Parent Node Connection,SPLIT MS1 SUPPLY EQUIPMENT OUTLET NODE,COIL:HEATING:FUEL,SPLIT MS1 HEATING COIL,Outlet,1
 Non-Parent Node Connection,SPLIT MS2 COOLING COIL OUTLET,COIL:HEATING:FUEL,SPLIT MS2 HEATING COIL,Inlet,1
 Non-Parent Node Connection,SPLIT MS2 SUPPLY EQUIPMENT OUTLET NODE,COIL:HEATING:FUEL,SPLIT MS2 HEATING COIL,Outlet,1
 Non-Parent Node Connection,SPLIT TSW COOLING COIL OUTLET,COIL:HEATING:FUEL,SPLIT TSW HEATING COIL,Inlet,1
 Non-Parent Node Connection,SPLIT TSW SUPPLY EQUIPMENT OUTLET NODE,COIL:HEATING:FUEL,SPLIT TSW HEATING COIL,Outlet,1
 Non-Parent Node Connection,SPLIT TNW COOLING COIL OUTLET,COIL:HEATING:FUEL,SPLIT TNW HEATING COIL,Inlet,1
 Non-Parent Node Connection,SPLIT TNW SUPPLY EQUIPMENT OUTLET NODE,COIL:HEATING:FUEL,SPLIT TNW HEATING COIL,Outlet,1
 Non-Parent Node Connection,SPLIT TSE COOLING COIL OUTLET,COIL:HEATING:FUEL,SPLIT TSE HEATING COIL,Inlet,1
 Non-Parent Node Connection,SPLIT TSE SUPPLY EQUIPMENT OUTLET NODE,COIL:HEATING:FUEL,SPLIT TSE HEATING COIL,Outlet,1
 Non-Parent Node Connection,SPLIT TNE COOLING COIL OUTLET,COIL:HEATING:FUEL,SPLIT TNE HEATING COIL,Inlet,1
 Non-Parent Node Connection,SPLIT TNE SUPPLY EQUIPMENT OUTLET NODE,COIL:HEATING:FUEL,SPLIT TNE HEATING COIL,Outlet,1
 Non-Parent Node Connection,SPLIT TN1 COOLING COIL OUTLET,COIL:HEATING:FUEL,SPLIT TN1 HEATING COIL,Inlet,1
 Non-Parent Node Connection,SPLIT TN1 SUPPLY EQUIPMENT OUTLET NODE,COIL:HEATING:FUEL,SPLIT TN1 HEATING COIL,Outlet,1
 Non-Parent Node Connection,SPLIT TN2 COOLING COIL OUTLET,COIL:HEATING:FUEL,SPLIT TN2 HEATING COIL,Inlet,1
 Non-Parent Node Connection,SPLIT TN2 SUPPLY EQUIPMENT OUTLET NODE,COIL:HEATING:FUEL,SPLIT TN2 HEATING COIL,Outlet,1
 Non-Parent Node Connection,SPLIT TS1 COOLING COIL OUTLET,COIL:HEATING:FUEL,SPLIT TS1 HEATING COIL,Inlet,1
 Non-Parent Node Connection,SPLIT TS1 SUPPLY EQUIPMENT OUTLET NODE,COIL:HEATING:FUEL,SPLIT TS1 HEATING COIL,Outlet,1
 Non-Parent Node Connection,SPLIT TS2 COOLING COIL OUTLET,COIL:HEATING:FUEL,SPLIT TS2 HEATING COIL,Inlet,1
 Non-Parent Node Connection,SPLIT TS2 SUPPLY EQUIPMENT OUTLET NODE,COIL:HEATING:FUEL,SPLIT TS2 HEATING COIL,Outlet,1
 Non-Parent Node Connection,SPLIT GSW SUPPLY FAN OUTLET,COIL:COOLING:DX:SINGLESPEED,SPLIT GSW COOLING COIL,Inlet,1
 Non-Parent Node Connection,SPLIT GSW COOLING COIL OUTLET,COIL:COOLING:DX:SINGLESPEED,SPLIT GSW COOLING COIL,Outlet,1
 Non-Parent Node Connection,SPLIT GNW SUPPLY FAN OUTLET,COIL:COOLING:DX:SINGLESPEED,SPLIT GNW COOLING COIL,Inlet,1
 Non-Parent Node Connection,SPLIT GNW COOLING COIL OUTLET,COIL:COOLING:DX:SINGLESPEED,SPLIT GNW COOLING COIL,Outlet,1
 Non-Parent Node Connection,SPLIT OFFICE SUPPLY FAN OUTLET,COIL:COOLING:DX:SINGLESPEED,SPLIT OFFICE COOLING COIL,Inlet,1
 Non-Parent Node Connection,SPLIT OFFICE COOLING COIL OUTLET,COIL:COOLING:DX:SINGLESPEED,SPLIT OFFICE COOLING COIL,Outlet,1
 Non-Parent Node Connection,SPLIT GNE SUPPLY FAN OUTLET,COIL:COOLING:DX:SINGLESPEED,SPLIT GNE COOLING COIL,Inlet,1
 Non-Parent Node Connection,SPLIT GNE COOLING COIL OUTLET,COIL:COOLING:DX:SINGLESPEED,SPLIT GNE COOLING COIL,Outlet,1
 Non-Parent Node Connection,SPLIT GN1 SUPPLY FAN OUTLET,COIL:COOLING:DX:SINGLESPEED,SPLIT GN1 COOLING COIL,Inlet,1
 Non-Parent Node Connection,SPLIT GN1 COOLING COIL OUTLET,COIL:COOLING:DX:SINGLESPEED,SPLIT GN1 COOLING COIL,Outlet,1
 Non-Parent Node Connection,SPLIT GN2 SUPPLY FAN OUTLET,COIL:COOLING:DX:SINGLESPEED,SPLIT GN2 COOLING COIL,Inlet,1
 Non-Parent Node Connection,SPLIT GN2 COOLING COIL OUTLET,COIL:COOLING:DX:SINGLESPEED,SPLIT GN2 COOLING COIL,Outlet,1
 Non-Parent Node Connection,SPLIT GS1 SUPPLY FAN OUTLET,COIL:COOLING:DX:SINGLESPEED,SPLIT GS1 COOLING COIL,Inlet,1
 Non-Parent Node Connection,SPLIT GS1 COOLING COIL OUTLET,COIL:COOLING:DX:SINGLESPEED,SPLIT GS1 COOLING COIL,Outlet,1
 Non-Parent Node Connection,SPLIT GS2 SUPPLY FAN OUTLET,COIL:COOLING:DX:SINGLESPEED,SPLIT GS2 COOLING COIL,Inlet,1
 Non-Parent Node Connection,SPLIT GS2 COOLING COIL OUTLET,COIL:COOLING:DX:SINGLESPEED,SPLIT GS2 COOLING COIL,Outlet,1
 Non-Parent Node Connection,SPLIT MSW SUPPLY FAN OUTLET,COIL:COOLING:DX:SINGLESPEED,SPLIT MSW COOLING COIL,Inlet,1
 Non-Parent Node Connection,SPLIT MSW COOLING COIL OUTLET,COIL:COOLING:DX:SINGLESPEED,SPLIT MSW COOLING COIL,Outlet,1
 Non-Parent Node Connection,SPLIT MNW SUPPLY FAN OUTLET,COIL:COOLING:DX:SINGLESPEED,SPLIT MNW COOLING COIL,Inlet,1
 Non-Parent Node Connection,SPLIT MNW COOLING COIL OUTLET,COIL:COOLING:DX:SINGLESPEED,SPLIT MNW COOLING COIL,Outlet,1
 Non-Parent Node Connection,SPLIT MSE SUPPLY FAN OUTLET,COIL:COOLING:DX:SINGLESPEED,SPLIT MSE COOLING COIL,Inlet,1
 Non-Parent Node Connection,SPLIT MSE COOLING COIL OUTLET,COIL:COOLING:DX:SINGLESPEED,SPLIT MSE COOLING COIL,Outlet,1
 Non-Parent Node Connection,SPLIT MNE SUPPLY FAN OUTLET,COIL:COOLING:DX:SINGLESPEED,SPLIT MNE COOLING COIL,Inlet,1
 Non-Parent Node Connection,SPLIT MNE COOLING COIL OUTLET,COIL:COOLING:DX:SINGLESPEED,SPLIT MNE COOLING COIL,Outlet,1
 Non-Parent Node Connection,SPLIT MN1 SUPPLY FAN OUTLET,COIL:COOLING:DX:SINGLESPEED,SPLIT MN1 COOLING COIL,Inlet,1
 Non-Parent Node Connection,SPLIT MN1 COOLING COIL OUTLET,COIL:COOLING:DX:SINGLESPEED,SPLIT MN1 COOLING COIL,Outlet,1
 Non-Parent Node Connection,SPLIT MN2 SUPPLY FAN OUTLET,COIL:COOLING:DX:SINGLESPEED,SPLIT MN2 COOLING COIL,Inlet,1
 Non-Parent Node Connection,SPLIT MN2 COOLING COIL OUTLET,COIL:COOLING:DX:SINGLESPEED,SPLIT MN2 COOLING COIL,Outlet,1
 Non-Parent Node Connection,SPLIT MS1 SUPPLY FAN OUTLET,COIL:COOLING:DX:SINGLESPEED,SPLIT MS1 COOLING COIL,Inlet,1
 Non-Parent Node Connection,SPLIT MS1 COOLING COIL OUTLET,COIL:COOLING:DX:SINGLESPEED,SPLIT MS1 COOLING COIL,Outlet,1
 Non-Parent Node Connection,SPLIT MS2 SUPPLY FAN OUTLET,COIL:COOLING:DX:SINGLESPEED,SPLIT MS2 COOLING COIL,Inlet,1
 Non-Parent Node Connection,SPLIT MS2 COOLING COIL OUTLET,COIL:COOLING:DX:SINGLESPEED,SPLIT MS2 COOLING COIL,Outlet,1
 Non-Parent Node Connection,SPLIT TSW SUPPLY FAN OUTLET,COIL:COOLING:DX:SINGLESPEED,SPLIT TSW COOLING COIL,Inlet,1
 Non-Parent Node Connection,SPLIT TSW COOLING COIL OUTLET,COIL:COOLING:DX:SINGLESPEED,SPLIT TSW COOLING COIL,Outlet,1
 Non-Parent Node Connection,SPLIT TNW SUPPLY FAN OUTLET,COIL:COOLING:DX:SINGLESPEED,SPLIT TNW COOLING COIL,Inlet,1
 Non-Parent Node Connection,SPLIT TNW COOLING COIL OUTLET,COIL:COOLING:DX:SINGLESPEED,SPLIT TNW COOLING COIL,Outlet,1
 Non-Parent Node Connection,SPLIT TSE SUPPLY FAN OUTLET,COIL:COOLING:DX:SINGLESPEED,SPLIT TSE COOLING COIL,Inlet,1
 Non-Parent Node Connection,SPLIT TSE COOLING COIL OUTLET,COIL:COOLING:DX:SINGLESPEED,SPLIT TSE COOLING COIL,Outlet,1
 Non-Parent Node Connection,SPLIT TNE SUPPLY FAN OUTLET,COIL:COOLING:DX:SINGLESPEED,SPLIT TNE COOLING COIL,Inlet,1
 Non-Parent Node Connection,SPLIT TNE COOLING COIL OUTLET,COIL:COOLING:DX:SINGLESPEED,SPLIT TNE COOLING COIL,Outlet,1
 Non-Parent Node Connection,SPLIT TN1 SUPPLY FAN OUTLET,COIL:COOLING:DX:SINGLESPEED,SPLIT TN1 COOLING COIL,Inlet,1
 Non-Parent Node Connection,SPLIT TN1 COOLING COIL OUTLET,COIL:COOLING:DX:SINGLESPEED,SPLIT TN1 COOLING COIL,Outlet,1
 Non-Parent Node Connection,SPLIT TN2 SUPPLY FAN OUTLET,COIL:COOLING:DX:SINGLESPEED,SPLIT TN2 COOLING COIL,Inlet,1
 Non-Parent Node Connection,SPLIT TN2 COOLING COIL OUTLET,COIL:COOLING:DX:SINGLESPEED,SPLIT TN2 COOLING COIL,Outlet,1
 Non-Parent Node Connection,SPLIT TS1 SUPPLY FAN OUTLET,COIL:COOLING:DX:SINGLESPEED,SPLIT TS1 COOLING COIL,Inlet,1
 Non-Parent Node Connection,SPLIT TS1 COOLING COIL OUTLET,COIL:COOLING:DX:SINGLESPEED,SPLIT TS1 COOLING COIL,Outlet,1
 Non-Parent Node Connection,SPLIT TS2 SUPPLY FAN OUTLET,COIL:COOLING:DX:SINGLESPEED,SPLIT TS2 COOLING COIL,Inlet,1
 Non-Parent Node Connection,SPLIT TS2 COOLING COIL OUTLET,COIL:COOLING:DX:SINGLESPEED,SPLIT TS2 COOLING COIL,Outlet,1
 Non-Parent Node Connection,SPLIT GSW MIXED AIR OUTLET,CONTROLLER:OUTDOORAIR,SPLIT GSW_OA_CONTROLLER,Sensor,1
 Non-Parent Node Connection,SPLIT GSW OAINLET NODE,CONTROLLER:OUTDOORAIR,SPLIT GSW_OA_CONTROLLER,Actuator,1
 Non-Parent Node Connection,SPLIT GSW OARELIEF NODE,CONTROLLER:OUTDOORAIR,SPLIT GSW_OA_CONTROLLER,Actuator,1
 Non-Parent Node Connection,SPLIT GSW SUPPLY EQUIPMENT INLET NODE,CONTROLLER:OUTDOORAIR,SPLIT GSW_OA_CONTROLLER,Sensor,1
 Non-Parent Node Connection,SPLIT GNW MIXED AIR OUTLET,CONTROLLER:OUTDOORAIR,SPLIT GNW_OA_CONTROLLER,Sensor,1
 Non-Parent Node Connection,SPLIT GNW OAINLET NODE,CONTROLLER:OUTDOORAIR,SPLIT GNW_OA_CONTROLLER,Actuator,1
 Non-Parent Node Connection,SPLIT GNW OARELIEF NODE,CONTROLLER:OUTDOORAIR,SPLIT GNW_OA_CONTROLLER,Actuator,1
 Non-Parent Node Connection,SPLIT GNW SUPPLY EQUIPMENT INLET NODE,CONTROLLER:OUTDOORAIR,SPLIT GNW_OA_CONTROLLER,Sensor,1
 Non-Parent Node Connection,SPLIT OFFICE MIXED AIR OUTLET,CONTROLLER:OUTDOORAIR,SPLIT OFFICE_OA_CONTROLLER,Sensor,1
 Non-Parent Node Connection,SPLIT OFFICE OAINLET NODE,CONTROLLER:OUTDOORAIR,SPLIT OFFICE_OA_CONTROLLER,Actuator,1
 Non-Parent Node Connection,SPLIT OFFICE OARELIEF NODE,CONTROLLER:OUTDOORAIR,SPLIT OFFICE_OA_CONTROLLER,Actuator,1
 Non-Parent Node Connection,SPLIT OFFICE SUPPLY EQUIPMENT INLET NODE,CONTROLLER:OUTDOORAIR,SPLIT OFFICE_OA_CONTROLLER,Sensor,1
 Non-Parent Node Connection,SPLIT GNE MIXED AIR OUTLET,CONTROLLER:OUTDOORAIR,SPLIT GNE_OA_CONTROLLER,Sensor,1
 Non-Parent Node Connection,SPLIT GNE OAINLET NODE,CONTROLLER:OUTDOORAIR,SPLIT GNE_OA_CONTROLLER,Actuator,1
 Non-Parent Node Connection,SPLIT GNE OARELIEF NODE,CONTROLLER:OUTDOORAIR,SPLIT GNE_OA_CONTROLLER,Actuator,1
 Non-Parent Node Connection,SPLIT GNE SUPPLY EQUIPMENT INLET NODE,CONTROLLER:OUTDOORAIR,SPLIT GNE_OA_CONTROLLER,Sensor,1
 Non-Parent Node Connection,SPLIT GN1 MIXED AIR OUTLET,CONTROLLER:OUTDOORAIR,SPLIT GN1_OA_CONTROLLER,Sensor,1
 Non-Parent Node Connection,SPLIT GN1 OAINLET NODE,CONTROLLER:OUTDOORAIR,SPLIT GN1_OA_CONTROLLER,Actuator,1
 Non-Parent Node Connection,SPLIT GN1 OARELIEF NODE,CONTROLLER:OUTDOORAIR,SPLIT GN1_OA_CONTROLLER,Actuator,1
 Non-Parent Node Connection,SPLIT GN1 SUPPLY EQUIPMENT INLET NODE,CONTROLLER:OUTDOORAIR,SPLIT GN1_OA_CONTROLLER,Sensor,1
 Non-Parent Node Connection,SPLIT GN2 MIXED AIR OUTLET,CONTROLLER:OUTDOORAIR,SPLIT GN2_OA_CONTROLLER,Sensor,1
 Non-Parent Node Connection,SPLIT GN2 OAINLET NODE,CONTROLLER:OUTDOORAIR,SPLIT GN2_OA_CONTROLLER,Actuator,1
 Non-Parent Node Connection,SPLIT GN2 OARELIEF NODE,CONTROLLER:OUTDOORAIR,SPLIT GN2_OA_CONTROLLER,Actuator,1
 Non-Parent Node Connection,SPLIT GN2 SUPPLY EQUIPMENT INLET NODE,CONTROLLER:OUTDOORAIR,SPLIT GN2_OA_CONTROLLER,Sensor,1
 Non-Parent Node Connection,SPLIT GS1 MIXED AIR OUTLET,CONTROLLER:OUTDOORAIR,SPLIT GS1_OA_CONTROLLER,Sensor,1
 Non-Parent Node Connection,SPLIT GS1 OAINLET NODE,CONTROLLER:OUTDOORAIR,SPLIT GS1_OA_CONTROLLER,Actuator,1
 Non-Parent Node Connection,SPLIT GS1 OARELIEF NODE,CONTROLLER:OUTDOORAIR,SPLIT GS1_OA_CONTROLLER,Actuator,1
 Non-Parent Node Connection,SPLIT GS1 SUPPLY EQUIPMENT INLET NODE,CONTROLLER:OUTDOORAIR,SPLIT GS1_OA_CONTROLLER,Sensor,1
 Non-Parent Node Connection,SPLIT GS2 MIXED AIR OUTLET,CONTROLLER:OUTDOORAIR,SPLIT GS2_OA_CONTROLLER,Sensor,1
 Non-Parent Node Connection,SPLIT GS2 OAINLET NODE,CONTROLLER:OUTDOORAIR,SPLIT GS2_OA_CONTROLLER,Actuator,1
 Non-Parent Node Connection,SPLIT GS2 OARELIEF NODE,CONTROLLER:OUTDOORAIR,SPLIT GS2_OA_CONTROLLER,Actuator,1
 Non-Parent Node Connection,SPLIT GS2 SUPPLY EQUIPMENT INLET NODE,CONTROLLER:OUTDOORAIR,SPLIT GS2_OA_CONTROLLER,Sensor,1
 Non-Parent Node Connection,SPLIT MSW MIXED AIR OUTLET,CONTROLLER:OUTDOORAIR,SPLIT MSW_OA_CONTROLLER,Sensor,1
 Non-Parent Node Connection,SPLIT MSW OAINLET NODE,CONTROLLER:OUTDOORAIR,SPLIT MSW_OA_CONTROLLER,Actuator,1
 Non-Parent Node Connection,SPLIT MSW OARELIEF NODE,CONTROLLER:OUTDOORAIR,SPLIT MSW_OA_CONTROLLER,Actuator,1
 Non-Parent Node Connection,SPLIT MSW SUPPLY EQUIPMENT INLET NODE,CONTROLLER:OUTDOORAIR,SPLIT MSW_OA_CONTROLLER,Sensor,1
 Non-Parent Node Connection,SPLIT MNW MIXED AIR OUTLET,CONTROLLER:OUTDOORAIR,SPLIT MNW_OA_CONTROLLER,Sensor,1
 Non-Parent Node Connection,SPLIT MNW OAINLET NODE,CONTROLLER:OUTDOORAIR,SPLIT MNW_OA_CONTROLLER,Actuator,1
 Non-Parent Node Connection,SPLIT MNW OARELIEF NODE,CONTROLLER:OUTDOORAIR,SPLIT MNW_OA_CONTROLLER,Actuator,1
 Non-Parent Node Connection,SPLIT MNW SUPPLY EQUIPMENT INLET NODE,CONTROLLER:OUTDOORAIR,SPLIT MNW_OA_CONTROLLER,Sensor,1
 Non-Parent Node Connection,SPLIT MSE MIXED AIR OUTLET,CONTROLLER:OUTDOORAIR,SPLIT MSE_OA_CONTROLLER,Sensor,1
 Non-Parent Node Connection,SPLIT MSE OAINLET NODE,CONTROLLER:OUTDOORAIR,SPLIT MSE_OA_CONTROLLER,Actuator,1
 Non-Parent Node Connection,SPLIT MSE OARELIEF NODE,CONTROLLER:OUTDOORAIR,SPLIT MSE_OA_CONTROLLER,Actuator,1
 Non-Parent Node Connection,SPLIT MSE SUPPLY EQUIPMENT INLET NODE,CONTROLLER:OUTDOORAIR,SPLIT MSE_OA_CONTROLLER,Sensor,1
 Non-Parent Node Connection,SPLIT MNE MIXED AIR OUTLET,CONTROLLER:OUTDOORAIR,SPLIT MNE_OA_CONTROLLER,Sensor,1
 Non-Parent Node Connection,SPLIT MNE OAINLET NODE,CONTROLLER:OUTDOORAIR,SPLIT MNE_OA_CONTROLLER,Actuator,1
 Non-Parent Node Connection,SPLIT MNE OARELIEF NODE,CONTROLLER:OUTDOORAIR,SPLIT MNE_OA_CONTROLLER,Actuator,1
 Non-Parent Node Connection,SPLIT MNE SUPPLY EQUIPMENT INLET NODE,CONTROLLER:OUTDOORAIR,SPLIT MNE_OA_CONTROLLER,Sensor,1
 Non-Parent Node Connection,SPLIT MN1 MIXED AIR OUTLET,CONTROLLER:OUTDOORAIR,SPLIT MN1_OA_CONTROLLER,Sensor,1
 Non-Parent Node Connection,SPLIT MN1 OAINLET NODE,CONTROLLER:OUTDOORAIR,SPLIT MN1_OA_CONTROLLER,Actuator,1
 Non-Parent Node Connection,SPLIT MN1 OARELIEF NODE,CONTROLLER:OUTDOORAIR,SPLIT MN1_OA_CONTROLLER,Actuator,1
 Non-Parent Node Connection,SPLIT MN1 SUPPLY EQUIPMENT INLET NODE,CONTROLLER:OUTDOORAIR,SPLIT MN1_OA_CONTROLLER,Sensor,1
 Non-Parent Node Connection,SPLIT MN2 MIXED AIR OUTLET,CONTROLLER:OUTDOORAIR,SPLIT MN2_OA_CONTROLLER,Sensor,1
 Non-Parent Node Connection,SPLIT MN2 OAINLET NODE,CONTROLLER:OUTDOORAIR,SPLIT MN2_OA_CONTROLLER,Actuator,1
 Non-Parent Node Connection,SPLIT MN2 OARELIEF NODE,CONTROLLER:OUTDOORAIR,SPLIT MN2_OA_CONTROLLER,Actuator,1
 Non-Parent Node Connection,SPLIT MN2 SUPPLY EQUIPMENT INLET NODE,CONTROLLER:OUTDOORAIR,SPLIT MN2_OA_CONTROLLER,Sensor,1
 Non-Parent Node Connection,SPLIT MS1 MIXED AIR OUTLET,CONTROLLER:OUTDOORAIR,SPLIT MS1_OA_CONTROLLER,Sensor,1
 Non-Parent Node Connection,SPLIT MS1 OAINLET NODE,CONTROLLER:OUTDOORAIR,SPLIT MS1_OA_CONTROLLER,Actuator,1
 Non-Parent Node Connection,SPLIT MS1 OARELIEF NODE,CONTROLLER:OUTDOORAIR,SPLIT MS1_OA_CONTROLLER,Actuator,1
 Non-Parent Node Connection,SPLIT MS1 SUPPLY EQUIPMENT INLET NODE,CONTROLLER:OUTDOORAIR,SPLIT MS1_OA_CONTROLLER,Sensor,1
 Non-Parent Node Connection,SPLIT MS2 MIXED AIR OUTLET,CONTROLLER:OUTDOORAIR,SPLIT MS2_OA_CONTROLLER,Sensor,1
 Non-Parent Node Connection,SPLIT MS2 OAINLET NODE,CONTROLLER:OUTDOORAIR,SPLIT MS2_OA_CONTROLLER,Actuator,1
 Non-Parent Node Connection,SPLIT MS2 OARELIEF NODE,CONTROLLER:OUTDOORAIR,SPLIT MS2_OA_CONTROLLER,Actuator,1
 Non-Parent Node Connection,SPLIT MS2 SUPPLY EQUIPMENT INLET NODE,CONTROLLER:OUTDOORAIR,SPLIT MS2_OA_CONTROLLER,Sensor,1
 Non-Parent Node Connection,SPLIT TSW MIXED AIR OUTLET,CONTROLLER:OUTDOORAIR,SPLIT TSW_OA_CONTROLLER,Sensor,1
 Non-Parent Node Connection,SPLIT TSW OAINLET NODE,CONTROLLER:OUTDOORAIR,SPLIT TSW_OA_CONTROLLER,Actuator,1
 Non-Parent Node Connection,SPLIT TSW OARELIEF NODE,CONTROLLER:OUTDOORAIR,SPLIT TSW_OA_CONTROLLER,Actuator,1
 Non-Parent Node Connection,SPLIT TSW SUPPLY EQUIPMENT INLET NODE,CONTROLLER:OUTDOORAIR,SPLIT TSW_OA_CONTROLLER,Sensor,1
 Non-Parent Node Connection,SPLIT TNW MIXED AIR OUTLET,CONTROLLER:OUTDOORAIR,SPLIT TNW_OA_CONTROLLER,Sensor,1
 Non-Parent Node Connection,SPLIT TNW OAINLET NODE,CONTROLLER:OUTDOORAIR,SPLIT TNW_OA_CONTROLLER,Actuator,1
 Non-Parent Node Connection,SPLIT TNW OARELIEF NODE,CONTROLLER:OUTDOORAIR,SPLIT TNW_OA_CONTROLLER,Actuator,1
 Non-Parent Node Connection,SPLIT TNW SUPPLY EQUIPMENT INLET NODE,CONTROLLER:OUTDOORAIR,SPLIT TNW_OA_CONTROLLER,Sensor,1
 Non-Parent Node Connection,SPLIT TSE MIXED AIR OUTLET,CONTROLLER:OUTDOORAIR,SPLIT TSE_OA_CONTROLLER,Sensor,1
 Non-Parent Node Connection,SPLIT TSE OAINLET NODE,CONTROLLER:OUTDOORAIR,SPLIT TSE_OA_CONTROLLER,Actuator,1
 Non-Parent Node Connection,SPLIT TSE OARELIEF NODE,CONTROLLER:OUTDOORAIR,SPLIT TSE_OA_CONTROLLER,Actuator,1
 Non-Parent Node Connection,SPLIT TSE SUPPLY EQUIPMENT INLET NODE,CONTROLLER:OUTDOORAIR,SPLIT TSE_OA_CONTROLLER,Sensor,1
 Non-Parent Node Connection,SPLIT TNE MIXED AIR OUTLET,CONTROLLER:OUTDOORAIR,SPLIT TNE_OA_CONTROLLER,Sensor,1
 Non-Parent Node Connection,SPLIT TNE OAINLET NODE,CONTROLLER:OUTDOORAIR,SPLIT TNE_OA_CONTROLLER,Actuator,1
 Non-Parent Node Connection,SPLIT TNE OARELIEF NODE,CONTROLLER:OUTDOORAIR,SPLIT TNE_OA_CONTROLLER,Actuator,1
 Non-Parent Node Connection,SPLIT TNE SUPPLY EQUIPMENT INLET NODE,CONTROLLER:OUTDOORAIR,SPLIT TNE_OA_CONTROLLER,Sensor,1
 Non-Parent Node Connection,SPLIT TN1 MIXED AIR OUTLET,CONTROLLER:OUTDOORAIR,SPLIT TN1_OA_CONTROLLER,Sensor,1
 Non-Parent Node Connection,SPLIT TN1 OAINLET NODE,CONTROLLER:OUTDOORAIR,SPLIT TN1_OA_CONTROLLER,Actuator,1
 Non-Parent Node Connection,SPLIT TN1 OARELIEF NODE,CONTROLLER:OUTDOORAIR,SPLIT TN1_OA_CONTROLLER,Actuator,1
 Non-Parent Node Connection,SPLIT TN1 SUPPLY EQUIPMENT INLET NODE,CONTROLLER:OUTDOORAIR,SPLIT TN1_OA_CONTROLLER,Sensor,1
 Non-Parent Node Connection,SPLIT TN2 MIXED AIR OUTLET,CONTROLLER:OUTDOORAIR,SPLIT TN2_OA_CONTROLLER,Sensor,1
 Non-Parent Node Connection,SPLIT TN2 OAINLET NODE,CONTROLLER:OUTDOORAIR,SPLIT TN2_OA_CONTROLLER,Actuator,1
 Non-Parent Node Connection,SPLIT TN2 OARELIEF NODE,CONTROLLER:OUTDOORAIR,SPLIT TN2_OA_CONTROLLER,Actuator,1
 Non-Parent Node Connection,SPLIT TN2 SUPPLY EQUIPMENT INLET NODE,CONTROLLER:OUTDOORAIR,SPLIT TN2_OA_CONTROLLER,Sensor,1
 Non-Parent Node Connection,SPLIT TS1 MIXED AIR OUTLET,CONTROLLER:OUTDOORAIR,SPLIT TS1_OA_CONTROLLER,Sensor,1
 Non-Parent Node Connection,SPLIT TS1 OAINLET NODE,CONTROLLER:OUTDOORAIR,SPLIT TS1_OA_CONTROLLER,Actuator,1
 Non-Parent Node Connection,SPLIT TS1 OARELIEF NODE,CONTROLLER:OUTDOORAIR,SPLIT TS1_OA_CONTROLLER,Actuator,1
 Non-Parent Node Connection,SPLIT TS1 SUPPLY EQUIPMENT INLET NODE,CONTROLLER:OUTDOORAIR,SPLIT TS1_OA_CONTROLLER,Sensor,1
 Non-Parent Node Connection,SPLIT TS2 MIXED AIR OUTLET,CONTROLLER:OUTDOORAIR,SPLIT TS2_OA_CONTROLLER,Sensor,1
 Non-Parent Node Connection,SPLIT TS2 OAINLET NODE,CONTROLLER:OUTDOORAIR,SPLIT TS2_OA_CONTROLLER,Actuator,1
 Non-Parent Node Connection,SPLIT TS2 OARELIEF NODE,CONTROLLER:OUTDOORAIR,SPLIT TS2_OA_CONTROLLER,Actuator,1
 Non-Parent Node Connection,SPLIT TS2 SUPPLY EQUIPMENT INLET NODE,CONTROLLER:OUTDOORAIR,SPLIT TS2_OA_CONTROLLER,Sensor,1
